
     RDKit          3D

  0  0  0  0  0  0  0  0  0  0999 V3000
M  V30 BEGIN CTAB
M  V30 COUNTS 228 246 0 0 0
M  V30 BEGIN ATOM
M  V30 1 C 7.1119 2.5684 21.3885 0
M  V30 2 C 6.6548 1.5334 20.3386 0
M  V30 3 H 6.6429 2.3426 22.3479 0
M  V30 4 H 8.1873 2.4820 21.5514 0
M  V30 5 C 6.7576 4.0108 20.9734 0
M  V30 6 C 5.1521 1.6754 20.0052 0
M  V30 7 H 7.2469 1.6569 19.4299 0
M  V30 8 H 6.8631 0.5254 20.7000 0
M  V30 9 C 5.2629 4.1635 20.6190 0
M  V30 10 H 7.0221 4.7038 21.7735 0
M  V30 11 H 7.3646 4.2988 20.1132 0
M  V30 12 N 4.8088 0.7346 18.9392 0
M  V30 13 H 4.5999 1.4960 20.9354 0
M  V30 14 C 4.8139 3.1371 19.5549 0
M  V30 15 H 5.0706 5.1770 20.2640 0
M  V30 16 H 4.6641 4.0415 21.5235 0
M  V30 17 C 3.9603 -0.1799 19.2090 0
M  V30 18 N 3.3756 3.2986 19.3255 0
M  V30 19 H 5.4136 3.3446 18.6604 0
M  V30 20 C 3.4055 -1.0931 18.2023 0
M  V30 21 H 3.5773 -0.3329 20.2157 0
M  V30 22 C 2.9841 3.2896 18.1090 0
M  V30 23 C 3.4851 -0.8093 16.8312 0
M  V30 24 C 2.7111 -2.2419 18.6056 0
M  V30 25 H 3.6894 3.1982 17.2854 0
M  V30 26 C 1.5791 3.3678 17.6880 0
M  V30 27 C 2.8655 -1.6323 15.8922 0
M  V30 28 H 4.0008 0.0809 16.4959 0
M  V30 29 C 2.0945 -3.0947 17.6759 0
M  V30 30 H 2.6262 -2.4726 19.6602 0
M  V30 31 C 1.2673 3.2824 16.3246 0
M  V30 32 C 0.5245 3.4756 18.6089 0
M  V30 33 C 2.8937 -1.2764 14.4814 0
M  V30 34 C 2.1827 -2.7725 16.3151 0
M  V30 35 C 1.3224 -4.2752 18.0850 0
M  V30 36 H 2.0549 3.1731 15.5907 0
M  V30 37 C -0.0580 3.3029 15.8906 0
M  V30 38 H 0.7578 3.5183 19.6655 0
M  V30 39 C -0.8142 3.5014 18.1944 0
M  V30 40 C 2.8916 -0.9391 13.3071 0
M  V30 41 H 1.6976 -3.3947 15.5746 0
M  V30 42 N 1.1290 -4.6278 19.2980 0
M  V30 43 H 0.8933 -4.8339 17.2555 0
M  V30 44 C -0.3687 3.1486 14.4773 0
M  V30 45 C -1.0883 3.4281 16.8209 0
M  V30 46 C -1.8908 3.5256 19.1919 0
M  V30 47 C 2.8766 -0.5072 11.9182 0
M  V30 48 C 0.2692 -5.7945 19.5150 0
M  V30 49 C -0.6505 2.9775 13.3009 0
M  V30 50 H -2.1143 3.4290 16.4770 0
M  V30 51 N -3.1046 3.8032 18.9116 0
M  V30 52 H -1.5754 3.2708 20.2014 0
M  V30 53 C 2.0585 0.5556 11.5307 0
M  V30 54 C 3.6789 -1.1583 10.9801 0
M  V30 55 C -1.1677 -5.3603 19.9624 0
M  V30 56 C 0.9293 -6.7044 20.5750 0
M  V30 57 H 0.1531 -6.4109 18.6153 0
M  V30 58 C -1.0061 2.7476 11.9093 0
M  V30 59 C -4.1003 3.6305 19.9691 0
M  V30 60 C 2.0447 0.9718 10.2006 0
M  V30 61 H 1.4355 1.0606 12.2551 0
M  V30 62 H 4.3139 -1.9812 11.2766 0
M  V30 63 C 3.6682 -0.7400 9.6510 0
M  V30 64 N -1.8066 -4.5851 18.8992 0
M  V30 65 H -1.0512 -4.7991 20.8972 0
M  V30 66 C -2.0431 -6.5933 20.2830 0
M  V30 67 C 0.0487 -7.9254 20.9164 0
M  V30 68 H 1.9049 -7.0416 20.2217 0
M  V30 69 H 1.1189 -6.1316 21.4847 0
M  V30 70 C -0.8404 3.7689 10.9727 0
M  V30 71 C -1.5099 1.5059 11.5178 0
M  V30 72 C -5.1933 2.6072 19.5092 0
M  V30 73 H -3.6770 3.2420 20.9030 0
M  V30 74 C -4.7308 5.0033 20.2968 0
M  V30 75 H 1.4092 1.7945 9.9047 0
M  V30 76 C 2.8543 0.3265 9.2641 0
M  V30 77 H 4.2957 -1.2417 8.9282 0
M  V30 78 C -2.1756 -3.3949 19.1758 0
M  V30 79 H -2.2284 -7.1610 19.3692 0
M  V30 80 H -3.0218 -6.2726 20.6429 0
M  V30 81 C -1.3795 -7.5146 21.3286 0
M  V30 82 H -0.0016 -8.5884 20.0508 0
M  V30 83 H 0.5134 -8.5069 21.7140 0
M  V30 84 H -0.4509 4.7316 11.2724 0
M  V30 85 C -1.1867 3.5495 9.6410 0
M  V30 86 C -1.8528 1.2850 10.1850 0
M  V30 87 H -1.6380 0.7131 12.2409 0
M  V30 88 N -4.6127 1.2805 19.2857 0
M  V30 89 C -6.3165 2.4838 20.5631 0
M  V30 90 H -5.6644 3.0227 18.6102 0
M  V30 91 H -5.1251 5.4548 19.3845 0
M  V30 92 H -3.9649 5.6871 20.6655 0
M  V30 93 C -5.8655 4.8825 21.3363 0
M  V30 94 C 2.8593 0.7682 7.8781 0
M  V30 95 H -2.1210 -2.9938 20.1856 0
M  V30 96 C -2.6850 -2.4511 18.1735 0
M  V30 97 H -1.3449 -7.0030 22.2922 0
M  V30 98 H -1.9925 -8.4041 21.4819 0
M  V30 99 C -1.6958 2.3097 9.2500 0
M  V30 100 H -1.0637 4.3445 8.9194 0
M  V30 101 H -2.2415 0.3218 9.8859 0
M  V30 102 C -4.3989 0.9448 18.0713 0
M  V30 103 H -7.0952 1.8108 20.2010 0
M  V30 104 H -5.9201 2.0262 21.4714 0
M  V30 105 C -6.9342 3.8549 20.9115 0
M  V30 106 H -5.4445 4.5890 22.2996 0
M  V30 107 H -6.3293 5.8572 21.4948 0
M  V30 108 C 2.8859 1.1163 6.7072 0
M  V30 109 C -3.3349 -1.2782 18.5817 0
M  V30 110 C -2.4734 -2.6529 16.8018 0
M  V30 111 C -2.0698 2.0920 7.8611 0
M  V30 112 C -3.7613 -0.3117 17.6565 0
M  V30 113 H -4.6643 1.6013 17.2449 0
M  V30 114 H -7.6739 3.7380 21.7048 0
M  V30 115 H -7.4789 4.2367 20.0461 0
M  V30 116 C 2.9057 1.4871 5.3000 0
M  V30 117 H -3.4968 -1.0964 19.6369 0
M  V30 118 C -2.8722 -1.6987 15.8675 0
M  V30 119 H -1.9588 -3.5424 16.4628 0
M  V30 120 C -2.3757 1.9396 6.6881 0
M  V30 121 C -3.5201 -0.5401 16.2953 0
M  V30 122 C 2.2803 2.6579 4.8723 0
M  V30 123 C 3.5182 0.6508 4.3682 0
M  V30 124 C -2.5718 -1.8919 14.4567 0
M  V30 125 C -2.6966 1.7694 5.2788 0
M  V30 126 H -3.8131 0.1961 15.5583 0
M  V30 127 C 2.2425 2.9984 3.5135 0
M  V30 128 H 1.7996 3.2900 5.6073 0
M  V30 129 C 3.4870 0.9521 2.9989 0
M  V30 130 H 3.9891 -0.2626 4.7067 0
M  V30 131 C -2.2732 -2.0515 13.2828 0
M  V30 132 C -2.2725 2.7169 4.3487 0
M  V30 133 C -3.3945 0.6416 4.8476 0
M  V30 134 C 1.5275 4.2119 3.0978 0
M  V30 135 C 2.8501 2.1320 2.5905 0
M  V30 136 C 4.0304 0.0264 1.9978 0
M  V30 137 C -1.8851 -2.2457 11.8945 0
M  V30 138 C -2.5083 2.5376 2.9779 0
M  V30 139 H -1.7195 3.5820 4.6899 0
M  V30 140 C -3.6610 0.4369 3.4872 0
M  V30 141 H -3.7066 -0.0897 5.5815 0
M  V30 142 N 1.3715 4.5806 1.8839 0
M  V30 143 H 1.1046 4.7813 3.9232 0
M  V30 144 H 2.8028 2.3768 1.5367 0
M  V30 145 N 4.8440 -0.9161 2.2788 0
M  V30 146 H 3.6701 0.1957 0.9853 0
M  V30 147 C -2.8451 -2.6128 10.9503 0
M  V30 148 C -0.5546 -2.0625 11.5136 0
M  V30 149 C -1.9708 3.4695 1.9794 0
M  V30 150 C -3.2083 1.3952 2.5661 0
M  V30 151 C -4.3517 -0.7896 3.0687 0
M  V30 152 C 0.5585 5.7796 1.6614 0
M  V30 153 C 5.1676 -1.8692 1.2174 0
M  V30 154 H -3.8760 -2.7559 11.2417 0
M  V30 155 C -2.4712 -2.8042 9.6217 0
M  V30 156 C -0.1811 -2.2501 10.1840 0
M  V30 157 H 0.1903 -1.7770 12.2427 0
M  V30 158 N -1.5636 4.6458 2.2619 0
M  V30 159 H -1.9294 3.0714 0.9678 0
M  V30 160 H -3.3891 1.2303 1.5112 0
M  V30 161 N -4.5860 -1.1105 1.8538 0
M  V30 162 H -4.6379 -1.4398 3.8930 0
M  V30 163 C -0.8917 5.4012 1.2049 0
M  V30 164 C 1.2587 6.6642 0.6059 0
M  V30 165 H 0.4611 6.3996 2.5608 0
M  V30 166 C 4.7677 -3.3171 1.6629 0
M  V30 167 H 4.6358 -1.6695 0.2795 0
M  V30 168 C 6.6790 -1.7849 0.9053 0
M  V30 169 C -1.1396 -2.6263 9.2414 0
M  V30 170 H -3.2155 -3.0951 8.8942 0
M  V30 171 H 0.8499 -2.1061 9.8931 0
M  V30 172 C -5.2167 -2.4143 1.6292 0
M  V30 173 H -0.7913 4.8396 0.2684 0
M  V30 174 C -1.7179 6.6676 0.8845 0
M  V30 175 C 0.4273 7.9189 0.2622 0
M  V30 176 H 2.2448 6.9629 0.9645 0
M  V30 177 H 1.4303 6.0855 -0.3036 0
M  V30 178 N 3.3216 -3.4229 1.8773 0
M  V30 179 C 5.1893 -4.3592 0.6032 0
M  V30 180 H 5.3486 -3.5484 2.5640 0
M  V30 181 C 7.1099 -2.8365 -0.1393 0
M  V30 182 H 7.2532 -1.9314 1.8220 0
M  V30 183 H 6.9308 -0.7855 0.5476 0
M  V30 184 C -0.7529 -2.8424 7.8558 0
M  V30 185 C -4.1616 -3.4814 1.1790 0
M  V30 186 C -6.3278 -2.2512 0.5683 0
M  V30 187 H -5.7094 -2.8079 2.5265 0
M  V30 188 H -1.8851 7.2395 1.7992 0
M  V30 189 H -2.7066 6.3856 0.5197 0
M  V30 190 C -1.0145 7.5649 -0.1561 0
M  V30 191 H 0.3995 8.5826 1.1283 0
M  V30 192 H 0.9175 8.4825 -0.5330 0
M  V30 193 C 2.9182 -3.3808 3.0894 0
M  V30 194 H 4.6073 -4.2128 -0.3085 0
M  V30 195 H 4.9529 -5.3648 0.9543 0
M  V30 196 C 6.6934 -4.2646 0.2684 0
M  V30 197 H 6.6639 -2.5917 -1.1049 0
M  V30 198 H 8.1901 -2.7923 -0.2869 0
M  V30 199 C -0.4589 -3.0319 6.6851 0
M  V30 200 N -3.1776 -3.6850 2.2418 0
M  V30 201 H -3.7200 -3.1142 0.2448 0
M  V30 202 C -4.8434 -4.8303 0.8558 0
M  V30 203 C -6.9969 -3.5989 0.2227 0
M  V30 204 H -5.9082 -1.8138 -0.3395 0
M  V30 205 H -7.0814 -1.5463 0.9228 0
M  V30 206 H -0.9960 7.0546 -1.1207 0
M  V30 207 H -1.5917 8.4780 -0.3097 0
M  V30 208 H 3.6186 -3.3050 3.9188 0
M  V30 209 C 1.5077 -3.3960 3.4982 0
M  V30 210 H 6.9410 -4.9663 -0.5295 0
M  V30 211 H 7.2773 -4.5773 1.1359 0
M  V30 212 C -0.1409 -3.2257 5.2782 0
M  V30 213 C -1.9536 -3.4493 1.9668 0
M  V30 214 C -5.9673 -4.6706 -0.1902 0
M  V30 215 H -5.2594 -5.2607 1.7686 0
M  V30 216 H -4.1030 -5.5455 0.4948 0
M  V30 217 H -7.5615 -3.9543 1.0866 0
M  V30 218 H -7.7267 -3.4570 -0.5757 0
M  V30 219 C 1.1877 -3.2667 4.8563 0
M  V30 220 C 0.4578 -3.4835 2.5697 0
M  V30 221 C -1.1669 -3.3326 4.3410 0
M  V30 222 C -0.8843 -3.4480 2.9722 0
M  V30 223 H -1.6233 -3.2148 0.9572 0
M  V30 224 H -5.5302 -4.3998 -1.1529 0
M  V30 225 H -6.4686 -5.6271 -0.3456 0
M  V30 226 H 1.9720 -3.1708 5.5955 0
M  V30 227 H 0.6983 -3.5583 1.5166 0
M  V30 228 H -2.1950 -3.2859 4.6752 0
M  V30 END ATOM
M  V30 BEGIN BOND
M  V30 0 1 2 1
M  V30 1 1 3 1
M  V30 2 1 4 1
M  V30 3 1 5 1
M  V30 4 1 6 2
M  V30 5 1 7 2
M  V30 6 1 8 2
M  V30 7 1 9 5
M  V30 8 1 10 5
M  V30 9 1 11 5
M  V30 10 1 12 6
M  V30 11 1 13 6
M  V30 12 1 14 6
M  V30 13 1 14 9
M  V30 14 1 15 9
M  V30 15 1 16 9
M  V30 16 1 17 12
M  V30 17 1 18 14
M  V30 18 1 19 14
M  V30 19 1 20 17
M  V30 20 1 21 17
M  V30 21 1 22 18
M  V30 22 1 23 20
M  V30 23 1 24 20
M  V30 24 1 25 22
M  V30 25 1 26 22
M  V30 26 1 27 23
M  V30 27 1 28 23
M  V30 28 1 29 24
M  V30 29 1 30 24
M  V30 30 1 31 26
M  V30 31 1 32 26
M  V30 32 1 33 27
M  V30 33 1 34 27
M  V30 34 1 34 29
M  V30 35 1 35 29
M  V30 36 1 36 31
M  V30 37 1 37 31
M  V30 38 1 38 32
M  V30 39 1 39 32
M  V30 40 1 40 33
M  V30 41 1 41 34
M  V30 42 1 42 35
M  V30 43 1 43 35
M  V30 44 1 44 37
M  V30 45 1 45 37
M  V30 46 1 45 39
M  V30 47 1 46 39
M  V30 48 1 47 40
M  V30 49 1 48 42
M  V30 50 1 49 44
M  V30 51 1 50 45
M  V30 52 1 51 46
M  V30 53 1 52 46
M  V30 54 1 53 47
M  V30 55 1 54 47
M  V30 56 1 55 48
M  V30 57 1 56 48
M  V30 58 1 57 48
M  V30 59 1 58 49
M  V30 60 1 59 51
M  V30 61 1 60 53
M  V30 62 1 61 53
M  V30 63 1 62 54
M  V30 64 1 63 54
M  V30 65 1 64 55
M  V30 66 1 65 55
M  V30 67 1 66 55
M  V30 68 1 67 56
M  V30 69 1 68 56
M  V30 70 1 69 56
M  V30 71 1 70 58
M  V30 72 1 71 58
M  V30 73 1 72 59
M  V30 74 1 73 59
M  V30 75 1 74 59
M  V30 76 1 75 60
M  V30 77 1 76 63
M  V30 78 1 76 60
M  V30 79 1 77 63
M  V30 80 1 78 64
M  V30 81 1 79 66
M  V30 82 1 80 66
M  V30 83 1 81 67
M  V30 84 1 81 66
M  V30 85 1 82 67
M  V30 86 1 83 67
M  V30 87 1 84 70
M  V30 88 1 85 70
M  V30 89 1 86 71
M  V30 90 1 87 71
M  V30 91 1 88 72
M  V30 92 1 89 72
M  V30 93 1 90 72
M  V30 94 1 91 74
M  V30 95 1 92 74
M  V30 96 1 93 74
M  V30 97 1 94 76
M  V30 98 1 95 78
M  V30 99 1 96 78
M  V30 100 1 97 81
M  V30 101 1 98 81
M  V30 102 1 99 86
M  V30 103 1 99 85
M  V30 104 1 100 85
M  V30 105 1 101 86
M  V30 106 1 102 88
M  V30 107 1 103 89
M  V30 108 1 104 89
M  V30 109 1 105 93
M  V30 110 1 105 89
M  V30 111 1 106 93
M  V30 112 1 107 93
M  V30 113 1 108 94
M  V30 114 1 109 96
M  V30 115 1 110 96
M  V30 116 1 111 99
M  V30 117 1 112 109
M  V30 118 1 112 102
M  V30 119 1 113 102
M  V30 120 1 114 105
M  V30 121 1 115 105
M  V30 122 1 116 108
M  V30 123 1 117 109
M  V30 124 1 118 110
M  V30 125 1 119 110
M  V30 126 1 120 111
M  V30 127 1 121 118
M  V30 128 1 121 112
M  V30 129 1 122 116
M  V30 130 1 123 116
M  V30 131 1 124 118
M  V30 132 1 125 120
M  V30 133 1 126 121
M  V30 134 1 127 122
M  V30 135 1 128 122
M  V30 136 1 129 123
M  V30 137 1 130 123
M  V30 138 1 131 124
M  V30 139 1 132 125
M  V30 140 1 133 125
M  V30 141 1 134 127
M  V30 142 1 135 129
M  V30 143 1 135 127
M  V30 144 1 136 129
M  V30 145 1 137 131
M  V30 146 1 138 132
M  V30 147 1 139 132
M  V30 148 1 140 133
M  V30 149 1 141 133
M  V30 150 1 142 134
M  V30 151 1 143 134
M  V30 152 1 144 135
M  V30 153 1 145 136
M  V30 154 1 146 136
M  V30 155 1 147 137
M  V30 156 1 148 137
M  V30 157 1 149 138
M  V30 158 1 150 140
M  V30 159 1 150 138
M  V30 160 1 151 140
M  V30 161 1 152 142
M  V30 162 1 153 145
M  V30 163 1 154 147
M  V30 164 1 155 147
M  V30 165 1 156 148
M  V30 166 1 157 148
M  V30 167 1 158 149
M  V30 168 1 159 149
M  V30 169 1 160 150
M  V30 170 1 161 151
M  V30 171 1 162 151
M  V30 172 1 163 158
M  V30 173 1 163 152
M  V30 174 1 164 152
M  V30 175 1 165 152
M  V30 176 1 166 153
M  V30 177 1 167 153
M  V30 178 1 168 153
M  V30 179 1 169 156
M  V30 180 1 169 155
M  V30 181 1 170 155
M  V30 182 1 171 156
M  V30 183 1 172 161
M  V30 184 1 173 163
M  V30 185 1 174 163
M  V30 186 1 175 164
M  V30 187 1 176 164
M  V30 188 1 177 164
M  V30 189 1 178 166
M  V30 190 1 179 166
M  V30 191 1 180 166
M  V30 192 1 181 168
M  V30 193 1 182 168
M  V30 194 1 183 168
M  V30 195 1 184 169
M  V30 196 1 185 172
M  V30 197 1 186 172
M  V30 198 1 187 172
M  V30 199 1 188 174
M  V30 200 1 189 174
M  V30 201 1 190 175
M  V30 202 1 190 174
M  V30 203 1 191 175
M  V30 204 1 192 175
M  V30 205 1 193 178
M  V30 206 1 194 179
M  V30 207 1 195 179
M  V30 208 1 196 181
M  V30 209 1 196 179
M  V30 210 1 197 181
M  V30 211 1 198 181
M  V30 212 1 199 184
M  V30 213 1 200 185
M  V30 214 1 201 185
M  V30 215 1 202 185
M  V30 216 1 203 186
M  V30 217 1 204 186
M  V30 218 1 205 186
M  V30 219 1 206 190
M  V30 220 1 207 190
M  V30 221 1 208 193
M  V30 222 1 209 193
M  V30 223 1 210 196
M  V30 224 1 211 196
M  V30 225 1 212 199
M  V30 226 1 213 200
M  V30 227 1 214 203
M  V30 228 1 214 202
M  V30 229 1 215 202
M  V30 230 1 216 202
M  V30 231 1 217 203
M  V30 232 1 218 203
M  V30 233 1 219 212
M  V30 234 1 219 209
M  V30 235 1 220 209
M  V30 236 1 221 212
M  V30 237 1 222 221
M  V30 238 1 222 220
M  V30 239 1 222 213
M  V30 240 1 223 213
M  V30 241 1 224 214
M  V30 242 1 225 214
M  V30 243 1 226 219
M  V30 244 1 227 220
M  V30 245 1 228 221
M  V30 END BOND
M  V30 END CTAB
M  END

$$$$
