
     RDKit          3D

  0  0  0  0  0  0  0  0  0  0999 V3000
M  V30 BEGIN CTAB
M  V30 COUNTS 108 114 0 0 0
M  V30 BEGIN ATOM
M  V30 1 C 5.9928 17.4684 11.4534 0
M  V30 2 N 5.0640 17.3272 12.5699 0
M  V30 3 C 6.5517 18.9082 11.3752 0
M  V30 4 H 5.4531 17.2492 10.5308 0
M  V30 5 H 6.8310 16.7631 11.4680 0
M  V30 6 C 5.3627 16.4802 13.4756 0
M  V30 7 N 7.3976 19.2060 12.5257 0
M  V30 8 H 7.1568 19.0063 10.4726 0
M  V30 9 H 5.7181 19.6049 11.2331 0
M  V30 10 H 6.2617 15.8702 13.4163 0
M  V30 11 C 4.5441 16.2405 14.6701 0
M  V30 12 C 6.9971 20.1180 13.3223 0
M  V30 13 C 4.8292 15.1439 15.4909 0
M  V30 14 C 3.4781 17.0787 15.0246 0
M  V30 15 H 6.0727 20.6647 13.1481 0
M  V30 16 C 7.7182 20.5168 14.5367 0
M  V30 17 C 4.0739 14.8673 16.6393 0
M  V30 18 H 5.6492 14.4842 15.2361 0
M  V30 19 C 2.7027 16.8375 16.1653 0
M  V30 20 H 3.2547 17.9295 14.3932 0
M  V30 21 C 8.8560 19.8336 14.9880 0
M  V30 22 C 7.2571 21.6066 15.2831 0
M  V30 23 C 4.3639 13.7100 17.4965 0
M  V30 24 C 3.0157 15.7261 16.9617 0
M  V30 25 C 1.5923 17.7430 16.4883 0
M  V30 26 C 9.5289 20.2180 16.1541 0
M  V30 27 H 9.2164 18.9893 14.4138 0
M  V30 28 C 7.8996 22.0178 16.4589 0
M  V30 29 H 6.3777 22.1463 14.9545 0
M  V30 30 N 5.2296 12.8195 17.2043 0
M  V30 31 H 3.7791 13.6649 18.4129 0
M  V30 32 H 2.4182 15.5338 17.8440 0
M  V30 33 N 0.7254 17.5081 17.3940 0
M  V30 34 H 1.5581 18.6463 15.8828 0
M  V30 35 C 10.7229 19.4740 16.5764 0
M  V30 36 C 9.0337 21.3115 16.8795 0
M  V30 37 C 7.4060 23.1484 17.2551 0
M  V30 38 C 5.4214 11.7257 18.1474 0
M  V30 39 C -0.3201 18.5047 17.5946 0
M  V30 40 N 11.4874 19.8386 17.5302 0
M  V30 41 H 10.9160 18.5707 16.0014 0
M  V30 42 H 9.5469 21.6104 17.7850 0
M  V30 43 N 6.4976 23.9518 16.8500 0
M  V30 44 H 7.8832 23.2495 18.2256 0
M  V30 45 C 6.8638 11.7233 18.7024 0
M  V30 46 H 5.2475 10.7879 17.6173 0
M  V30 47 H 4.7111 11.7130 18.9815 0
M  V30 48 C -0.3474 18.9999 19.0577 0
M  V30 49 H -1.2802 18.0366 17.3709 0
M  V30 50 H -0.2623 19.3699 16.9248 0
M  V30 51 C 12.6403 18.9950 17.8229 0
M  V30 52 C 5.9889 25.0472 17.6842 0
M  V30 53 N 7.0573 12.8125 19.6504 0
M  V30 54 H 7.0363 10.7829 19.2282 0
M  V30 55 H 7.5741 11.7133 17.8682 0
M  V30 56 N 0.8066 19.8407 19.3546 0
M  V30 57 H -1.2476 19.5992 19.2036 0
M  V30 58 H -0.4697 18.1391 19.7245 0
M  V30 59 C 12.6128 18.4934 19.2839 0
M  V30 60 H 13.5413 19.5936 17.6793 0
M  V30 61 H 12.7612 18.1369 17.1524 0
M  V30 62 C 6.3113 25.0433 19.2248 0
M  V30 63 H 4.9074 25.1047 17.5533 0
M  V30 64 H 6.3538 25.9838 17.2593 0
M  V30 65 C 7.9241 13.7032 19.3621 0
M  V30 66 C 1.5708 19.4705 20.3065 0
M  V30 67 N 11.5663 17.4971 19.4803 0
M  V30 68 H 13.5724 18.0233 19.5053 0
M  V30 69 H 12.5561 19.3557 19.9574 0
M  V30 70 N 5.8013 23.9445 20.0537 0
M  V30 71 H 7.3929 25.0989 19.3559 0
M  V30 72 H 5.9475 25.9783 19.6541 0
M  V30 73 H 8.5086 13.6615 18.4454 0
M  V30 74 C 8.2156 14.8562 20.2245 0
M  V30 75 H 1.3769 18.5645 20.8769 0
M  V30 76 C 2.7657 20.2111 20.7323 0
M  V30 77 C 10.7003 17.7285 20.3878 0
M  V30 78 C 4.8920 23.1440 19.6447 0
M  V30 79 C 9.2746 15.7153 19.9057 0
M  V30 80 C 7.4608 15.1285 21.3742 0
M  V30 81 C 3.4382 19.8206 21.8966 0
M  V30 82 C 3.2622 21.3074 20.0119 0
M  V30 83 H 10.7359 18.6288 20.9977 0
M  V30 84 C 9.5890 16.8228 20.7069 0
M  V30 85 H 4.4152 23.2501 18.6746 0
M  V30 86 C 4.3970 22.0104 20.4357 0
M  V30 87 H 9.8716 15.5264 19.0223 0
M  V30 88 C 7.7472 16.2211 22.1999 0
M  V30 89 H 6.6402 14.4685 21.6262 0
M  V30 90 C 4.5768 20.5004 22.3510 0
M  V30 91 H 3.0769 18.9740 22.4670 0
M  V30 92 H 2.7494 21.6110 19.1077 0
M  V30 93 C 8.8142 17.0596 21.8490 0
M  V30 94 C 5.0391 21.5931 21.6096 0
M  V30 95 C 6.9289 16.4565 23.3953 0
M  V30 96 C 5.2974 20.0955 23.5636 0
M  V30 97 H 9.0386 17.9074 22.4841 0
M  V30 98 H 5.9191 22.1303 21.9406 0
M  V30 99 N 7.2283 17.2995 24.3045 0
M  V30 100 H 6.0294 15.8470 23.4521 0
M  V30 101 N 4.8963 19.1803 24.3562 0
M  V30 102 H 6.2224 20.6406 23.7402 0
M  V30 103 C 6.2996 17.4369 25.4215 0
M  V30 104 C 5.7419 18.8770 25.5055 0
M  V30 105 H 6.8390 17.2135 26.3433 0
M  V30 106 H 5.4607 16.7324 25.4041 0
M  V30 107 H 5.1369 18.9719 26.4084 0
M  V30 108 H 6.5762 19.5723 25.6504 0
M  V30 END ATOM
M  V30 BEGIN BOND
M  V30 0 1 2 1
M  V30 1 1 3 1
M  V30 2 1 4 1
M  V30 3 1 5 1
M  V30 4 1 6 2
M  V30 5 1 7 3
M  V30 6 1 8 3
M  V30 7 1 9 3
M  V30 8 1 10 6
M  V30 9 1 11 6
M  V30 10 1 12 7
M  V30 11 1 13 11
M  V30 12 1 14 11
M  V30 13 1 15 12
M  V30 14 1 16 12
M  V30 15 1 17 13
M  V30 16 1 18 13
M  V30 17 1 19 14
M  V30 18 1 20 14
M  V30 19 1 21 16
M  V30 20 1 22 16
M  V30 21 1 23 17
M  V30 22 1 24 17
M  V30 23 1 24 19
M  V30 24 1 25 19
M  V30 25 1 26 21
M  V30 26 1 27 21
M  V30 27 1 28 22
M  V30 28 1 29 22
M  V30 29 1 30 23
M  V30 30 1 31 23
M  V30 31 1 32 24
M  V30 32 1 33 25
M  V30 33 1 34 25
M  V30 34 1 35 26
M  V30 35 1 36 26
M  V30 36 1 36 28
M  V30 37 1 37 28
M  V30 38 1 38 30
M  V30 39 1 39 33
M  V30 40 1 40 35
M  V30 41 1 41 35
M  V30 42 1 42 36
M  V30 43 1 43 37
M  V30 44 1 44 37
M  V30 45 1 45 38
M  V30 46 1 46 38
M  V30 47 1 47 38
M  V30 48 1 48 39
M  V30 49 1 49 39
M  V30 50 1 50 39
M  V30 51 1 51 40
M  V30 52 1 52 43
M  V30 53 1 53 45
M  V30 54 1 54 45
M  V30 55 1 55 45
M  V30 56 1 56 48
M  V30 57 1 57 48
M  V30 58 1 58 48
M  V30 59 1 59 51
M  V30 60 1 60 51
M  V30 61 1 61 51
M  V30 62 1 62 52
M  V30 63 1 63 52
M  V30 64 1 64 52
M  V30 65 1 65 53
M  V30 66 1 66 56
M  V30 67 1 67 59
M  V30 68 1 68 59
M  V30 69 1 69 59
M  V30 70 1 70 62
M  V30 71 1 71 62
M  V30 72 1 72 62
M  V30 73 1 73 65
M  V30 74 1 74 65
M  V30 75 1 75 66
M  V30 76 1 76 66
M  V30 77 1 77 67
M  V30 78 1 78 70
M  V30 79 1 79 74
M  V30 80 1 80 74
M  V30 81 1 81 76
M  V30 82 1 82 76
M  V30 83 1 83 77
M  V30 84 1 84 79
M  V30 85 1 84 77
M  V30 86 1 85 78
M  V30 87 1 86 82
M  V30 88 1 86 78
M  V30 89 1 87 79
M  V30 90 1 88 80
M  V30 91 1 89 80
M  V30 92 1 90 81
M  V30 93 1 91 81
M  V30 94 1 92 82
M  V30 95 1 93 88
M  V30 96 1 93 84
M  V30 97 1 94 90
M  V30 98 1 94 86
M  V30 99 1 95 88
M  V30 100 1 96 90
M  V30 101 1 97 93
M  V30 102 1 98 94
M  V30 103 1 99 95
M  V30 104 1 100 95
M  V30 105 1 101 96
M  V30 106 1 102 96
M  V30 107 1 103 99
M  V30 108 1 104 101
M  V30 109 1 104 103
M  V30 110 1 105 103
M  V30 111 1 106 103
M  V30 112 1 107 104
M  V30 113 1 108 104
M  V30 END BOND
M  V30 END CTAB
M  END

$$$$
