
     RDKit          3D

  0  0  0  0  0  0  0  0  0  0999 V3000
M  V30 BEGIN CTAB
M  V30 COUNTS 216 234 0 0 0
M  V30 BEGIN ATOM
M  V30 1 C 3.6583 10.6852 82.8313 0
M  V30 2 C 4.7713 10.6382 83.8994 0
M  V30 3 H 3.3474 11.7176 82.6639 0
M  V30 4 H 4.0558 10.3320 81.8781 0
M  V30 5 C 2.4401 9.8270 83.2266 0
M  V30 6 C 5.1865 9.1883 84.2407 0
M  V30 7 H 5.6382 11.2020 83.5518 0
M  V30 8 H 4.4246 11.1441 84.8024 0
M  V30 9 H 1.7108 9.8200 82.4151 0
M  V30 10 H 1.9365 10.2846 84.0801 0
M  V30 11 C 2.8418 8.3804 83.5844 0
M  V30 12 H 5.5702 8.7422 83.3153 0
M  V30 13 C 3.9446 8.3360 84.6663 0
M  V30 14 N 6.1750 9.2226 85.3207 0
M  V30 15 H 3.1896 7.8708 82.6839 0
M  V30 16 H 1.9642 7.8281 83.9235 0
M  V30 17 H 3.5183 8.8145 85.5563 0
M  V30 18 N 4.3203 6.9384 84.8905 0
M  V30 19 C 7.3421 8.7740 85.0605 0
M  V30 20 C 4.4022 6.5543 86.1058 0
M  V30 21 C 8.4157 8.6492 86.0554 0
M  V30 22 H 7.6194 8.4415 84.0624 0
M  V30 23 H 4.1735 7.2265 86.9303 0
M  V30 24 C 4.8260 5.2132 86.5290 0
M  V30 25 C 8.1654 8.7148 87.4340 0
M  V30 26 C 9.7262 8.4046 85.6291 0
M  V30 27 C 4.9017 4.9212 87.8953 0
M  V30 28 C 5.2007 4.2193 85.6156 0
M  V30 29 C 9.1820 8.5332 88.3818 0
M  V30 30 H 7.1500 8.8719 87.7693 0
M  V30 31 C 10.7734 8.2300 86.5432 0
M  V30 32 H 9.9421 8.3332 84.5705 0
M  V30 33 H 4.6112 5.6770 88.6110 0
M  V30 34 C 5.3549 3.6831 88.3685 0
M  V30 35 C 5.6434 2.9620 86.0427 0
M  V30 36 H 5.1568 4.4421 84.5569 0
M  V30 37 C 10.4814 8.3078 87.9094 0
M  V30 38 C 8.8912 8.5496 89.8511 0
M  V30 39 C 12.1469 7.9266 86.1203 0
M  V30 40 C 5.7081 2.7120 87.4215 0
M  V30 41 C 5.4813 3.4229 89.8380 0
M  V30 42 C 6.0742 1.9699 85.0487 0
M  V30 43 H 11.2806 8.1799 88.6254 0
M  V30 44 C 9.6497 7.7742 90.7395 0
M  V30 45 C 7.8509 9.3282 90.3757 0
M  V30 46 N 12.5210 7.8073 84.9050 0
M  V30 47 H 12.8428 7.7858 86.9449 0
M  V30 48 H 6.0786 1.7540 87.7577 0
M  V30 49 C 5.7736 4.4670 90.7270 0
M  V30 50 C 5.3216 2.1332 90.3623 0
M  V30 51 H 6.2273 2.3766 84.0513 0
M  V30 52 N 6.2669 0.7345 85.3089 0
M  V30 53 H 10.4423 7.1357 90.3786 0
M  V30 54 C 9.3871 7.7868 92.1058 0
M  V30 55 C 7.5745 9.3263 91.7413 0
M  V30 56 H 7.2516 9.9508 89.7279 0
M  V30 57 C 13.9189 7.4330 84.6805 0
M  V30 58 H 5.9347 5.4719 90.3662 0
M  V30 59 C 5.8874 4.2336 92.0939 0
M  V30 60 C 5.4548 1.8951 91.7287 0
M  V30 61 H 5.0822 1.3036 89.7137 0
M  V30 62 C 6.7942 -0.1044 84.2305 0
M  V30 63 C 8.3434 8.5588 92.6204 0
M  V30 64 H 9.9822 7.1696 92.7639 0
M  V30 65 H 6.7676 9.9374 92.1190 0
M  V30 66 C 14.0343 5.9326 84.2502 0
M  V30 67 C 14.5103 8.3685 83.6017 0
M  V30 68 H 14.5461 7.5594 85.5713 0
M  V30 69 C 5.7339 2.9445 92.6084 0
M  V30 70 H 6.1241 5.0571 92.7526 0
M  V30 71 H 5.3240 0.8914 92.1064 0
M  V30 72 H 6.9932 0.4514 83.3064 0
M  V30 73 C 5.7461 -1.1872 83.8840 0
M  V30 74 C 8.1506 -0.7558 84.6613 0
M  V30 75 C 8.0458 8.5373 94.0767 0
M  V30 76 H 13.4563 5.8271 83.3244 0
M  V30 77 N 13.5683 5.0565 85.3273 0
M  V30 78 C 15.4972 5.5663 83.9081 0
M  V30 79 C 15.9634 7.9922 83.2427 0
M  V30 80 H 13.8950 8.3260 82.7010 0
M  V30 81 H 14.4723 9.4037 83.9442 0
M  V30 82 C 5.8928 2.6982 94.0657 0
M  V30 83 H 4.8263 -0.7169 83.5333 0
M  V30 84 H 5.4771 -1.7411 84.7852 0
M  V30 85 C 6.2649 -2.1739 82.8167 0
M  V30 86 N 9.1733 0.2670 84.8905 0
M  V30 87 C 8.6668 -1.7329 83.5806 0
M  V30 88 H 7.9450 -1.3646 85.5500 0
M  V30 89 C 6.7469 8.2938 94.5309 0
M  V30 90 C 9.0618 8.7169 95.0207 0
M  V30 91 C 12.5968 4.2706 85.0635 0
M  V30 92 H 15.5508 4.5346 83.5577 0
M  V30 93 H 16.1086 5.6105 84.8113 0
M  V30 94 C 16.0955 6.5090 82.8427 0
M  V30 95 H 16.3227 8.6293 82.4332 0
M  V30 96 H 16.6118 8.1958 84.0967 0
M  V30 97 C 6.7500 1.6949 94.5254 0
M  V30 98 C 5.2241 3.4893 95.0052 0
M  V30 99 H 5.5260 -2.9582 82.6452 0
M  V30 100 H 6.3769 -1.6521 81.8647 0
M  V30 101 C 7.6148 -2.8022 83.2171 0
M  V30 102 C 9.4600 0.5293 86.1072 0
M  V30 103 H 8.9389 -1.1764 82.6817 0
M  V30 104 H 9.5817 -2.2185 83.9231 0
M  V30 105 C 6.4540 8.1938 95.8960 0
M  V30 106 H 5.9672 8.1381 93.7977 0
M  V30 107 H 10.0692 8.9070 94.6757 0
M  V30 108 C 8.8073 8.6406 96.3975 0
M  V30 109 C 11.9502 3.4007 86.0551 0
M  V30 110 H 12.1720 4.1991 84.0645 0
M  V30 111 H 17.1447 6.2612 82.6744 0
M  V30 112 H 15.5905 6.3450 81.8891 0
M  V30 113 C 6.9753 1.4923 95.8920 0
M  V30 114 H 7.2786 1.0968 93.7956 0
M  V30 115 H 4.5582 4.2668 94.6558 0
M  V30 116 C 5.4092 3.3077 96.3832 0
M  V30 117 H 7.9880 -3.4299 82.4066 0
M  V30 118 H 7.4657 -3.4678 84.0692 0
M  V30 119 C 10.4081 1.5665 86.5348 0
M  V30 120 H 8.9877 -0.0044 86.9294 0
M  V30 121 C 5.0881 7.8520 96.3136 0
M  V30 122 C 7.4972 8.3754 96.8159 0
M  V30 123 C 9.8762 8.7816 97.3955 0
M  V30 124 C 12.1285 3.5818 87.4346 0
M  V30 125 C 11.0849 2.3884 85.6243 0
M  V30 126 C 7.9520 0.4809 96.3161 0
M  V30 127 C 6.2912 2.3057 96.8074 0
M  V30 128 C 4.7468 4.1633 97.3770 0
M  V30 129 C 10.6172 1.7781 87.9020 0
M  V30 130 H 4.3961 7.7013 95.4876 0
M  V30 131 N 4.7190 7.7120 97.5282 0
M  V30 132 H 7.2796 8.2912 97.8732 0
M  V30 133 H 9.6050 8.4389 98.3917 0
M  V30 134 N 11.0334 9.2565 97.1380 0
M  V30 135 C 11.4606 2.7900 88.3789 0
M  V30 136 H 12.7710 4.3821 87.7734 0
M  V30 137 H 10.9181 2.2392 84.5650 0
M  V30 138 N 8.2518 0.2335 97.5326 0
M  V30 139 H 8.4327 -0.0446 95.4934 0
M  V30 140 H 6.4668 2.1601 97.8658 0
M  V30 141 H 5.1728 4.0992 98.3760 0
M  V30 142 N 3.7592 4.9290 97.1134 0
M  V30 143 H 10.1050 1.1484 88.6154 0
M  V30 144 C 3.3341 7.2943 97.7535 0
M  V30 145 C 12.0238 9.2433 98.2162 0
M  V30 146 C 11.6163 3.0298 89.8492 0
M  V30 147 C 9.3053 -0.7561 97.7653 0
M  V30 148 C 3.2690 5.7925 98.1894 0
M  V30 149 C 2.7131 8.2143 98.8292 0
M  V30 150 H 2.7034 7.3964 96.8622 0
M  V30 151 H 11.6560 8.7739 99.1365 0
M  V30 152 C 12.3904 10.7027 98.5727 0
M  V30 153 C 13.2927 8.4383 97.7784 0
M  V30 154 C 12.8103 3.5376 90.3784 0
M  V30 155 C 10.5626 2.7601 90.7339 0
M  V30 156 C 10.6361 -0.0598 98.2053 0
M  V30 157 C 8.8145 -1.7508 98.8417 0
M  V30 158 H 9.5364 -1.3556 96.8765 0
M  V30 159 H 3.8538 5.7079 99.1132 0
M  V30 160 C 1.8197 5.3799 98.5369 0
M  V30 161 C 1.2740 7.7914 99.1921 0
M  V30 162 H 3.3305 8.1963 99.7292 0
M  V30 163 H 2.7161 9.2486 98.4821 0
M  V30 164 H 11.5060 11.2327 98.9291 0
M  V30 165 H 12.7164 11.2302 97.6743 0
M  V30 166 C 13.5049 10.7766 99.6376 0
M  V30 167 N 12.9623 7.0313 97.5452 0
M  V30 168 C 14.3979 8.5102 98.8565 0
M  V30 169 H 13.6980 8.9380 96.8903 0
M  V30 170 H 13.6511 3.7457 89.7333 0
M  V30 171 C 12.9439 3.7729 91.7452 0
M  V30 172 C 10.7017 2.9763 92.1013 0
M  V30 173 H 9.6136 2.3960 90.3692 0
M  V30 174 H 10.4122 0.4916 99.1264 0
M  V30 175 N 11.1435 0.7937 97.1292 0
M  V30 176 C 11.7171 -1.1068 98.5613 0
M  V30 177 C 9.8992 -2.7840 99.2132 0
M  V30 178 H 8.5168 -1.2046 99.7387 0
M  V30 179 H 7.9192 -2.2670 98.4921 0
M  V30 180 H 1.8007 4.3484 98.8917 0
M  V30 181 H 1.2051 5.3999 97.6349 0
M  V30 182 C 1.1925 6.3067 99.5995 0
M  V30 183 H 0.8944 8.4200 99.9990 0
M  V30 184 H 0.6179 7.9688 98.3380 0
M  V30 185 H 13.7804 11.8172 99.8155 0
M  V30 186 H 13.1237 10.3990 100.5881 0
M  V30 187 C 14.7506 9.9659 99.2279 0
M  V30 188 C 12.9014 6.6474 96.3286 0
M  V30 189 H 14.0718 7.9798 99.7532 0
M  V30 190 H 15.2927 7.9921 98.5084 0
M  V30 191 C 11.8920 3.4896 92.6207 0
M  V30 192 H 13.8764 4.1628 92.1267 0
M  V30 193 H 9.8675 2.7692 92.7567 0
M  V30 194 C 11.3101 2.0328 97.3901 0
M  V30 195 H 12.6177 -0.6057 98.9190 0
M  V30 196 H 12.0118 -1.6517 97.6626 0
M  V30 197 C 11.2233 -2.1102 99.6248 0
M  V30 198 H 9.5410 -3.4245 100.0205 0
M  V30 199 H 10.0779 -3.4435 98.3621 0
M  V30 200 H 0.1525 6.0247 99.7712 0
M  V30 201 H 1.7047 6.1641 100.5527 0
M  V30 202 H 15.4835 9.9759 100.0361 0
M  V30 203 H 15.2338 10.4499 98.3772 0
M  V30 204 C 12.5150 5.2955 95.9045 0
M  V30 205 H 13.1186 7.3258 95.5061 0
M  V30 206 C 12.0194 3.7522 94.0784 0
M  V30 207 C 11.7239 3.0322 96.3960 0
M  V30 208 H 11.1472 2.4363 98.3872 0
M  V30 209 H 11.9870 -2.8688 99.8028 0
M  V30 210 H 11.0857 -1.5922 100.5756 0
M  V30 211 C 12.4577 4.9970 94.5381 0
M  V30 212 C 12.1487 4.2977 96.8198 0
M  V30 213 C 11.6649 2.7790 95.0181 0
M  V30 214 H 12.7144 5.7528 93.8083 0
M  V30 215 H 12.1827 4.5242 97.8780 0
M  V30 216 H 11.3260 1.8129 94.6688 0
M  V30 END ATOM
M  V30 BEGIN BOND
M  V30 0 1 2 1
M  V30 1 1 3 1
M  V30 2 1 4 1
M  V30 3 1 5 1
M  V30 4 1 6 2
M  V30 5 1 7 2
M  V30 6 1 8 2
M  V30 7 1 9 5
M  V30 8 1 10 5
M  V30 9 1 11 5
M  V30 10 1 12 6
M  V30 11 1 13 11
M  V30 12 1 13 6
M  V30 13 1 14 6
M  V30 14 1 15 11
M  V30 15 1 16 11
M  V30 16 1 17 13
M  V30 17 1 18 13
M  V30 18 1 19 14
M  V30 19 1 20 18
M  V30 20 1 21 19
M  V30 21 1 22 19
M  V30 22 1 23 20
M  V30 23 1 24 20
M  V30 24 1 25 21
M  V30 25 1 26 21
M  V30 26 1 27 24
M  V30 27 1 28 24
M  V30 28 1 29 25
M  V30 29 1 30 25
M  V30 30 1 31 26
M  V30 31 1 32 26
M  V30 32 1 33 27
M  V30 33 1 34 27
M  V30 34 1 35 28
M  V30 35 1 36 28
M  V30 36 1 37 31
M  V30 37 1 37 29
M  V30 38 1 38 29
M  V30 39 1 39 31
M  V30 40 1 40 35
M  V30 41 1 40 34
M  V30 42 1 41 34
M  V30 43 1 42 35
M  V30 44 1 43 37
M  V30 45 1 44 38
M  V30 46 1 45 38
M  V30 47 1 46 39
M  V30 48 1 47 39
M  V30 49 1 48 40
M  V30 50 1 49 41
M  V30 51 1 50 41
M  V30 52 1 51 42
M  V30 53 1 52 42
M  V30 54 1 53 44
M  V30 55 1 54 44
M  V30 56 1 55 45
M  V30 57 1 56 45
M  V30 58 1 57 46
M  V30 59 1 58 49
M  V30 60 1 59 49
M  V30 61 1 60 50
M  V30 62 1 61 50
M  V30 63 1 62 52
M  V30 64 1 63 55
M  V30 65 1 63 54
M  V30 66 1 64 54
M  V30 67 1 65 55
M  V30 68 1 66 57
M  V30 69 1 67 57
M  V30 70 1 68 57
M  V30 71 1 69 59
M  V30 72 1 69 60
M  V30 73 1 70 59
M  V30 74 1 71 60
M  V30 75 1 72 62
M  V30 76 1 73 62
M  V30 77 1 74 62
M  V30 78 1 75 63
M  V30 79 1 76 66
M  V30 80 1 77 66
M  V30 81 1 78 66
M  V30 82 1 79 67
M  V30 83 1 80 67
M  V30 84 1 81 67
M  V30 85 1 82 69
M  V30 86 1 83 73
M  V30 87 1 84 73
M  V30 88 1 85 73
M  V30 89 1 86 74
M  V30 90 1 87 74
M  V30 91 1 88 74
M  V30 92 1 89 75
M  V30 93 1 90 75
M  V30 94 1 91 77
M  V30 95 1 92 78
M  V30 96 1 93 78
M  V30 97 1 94 79
M  V30 98 1 94 78
M  V30 99 1 95 79
M  V30 100 1 96 79
M  V30 101 1 97 82
M  V30 102 1 98 82
M  V30 103 1 99 85
M  V30 104 1 100 85
M  V30 105 1 101 87
M  V30 106 1 101 85
M  V30 107 1 102 86
M  V30 108 1 103 87
M  V30 109 1 104 87
M  V30 110 1 105 89
M  V30 111 1 106 89
M  V30 112 1 107 90
M  V30 113 1 108 90
M  V30 114 1 109 91
M  V30 115 1 110 91
M  V30 116 1 111 94
M  V30 117 1 112 94
M  V30 118 1 113 97
M  V30 119 1 114 97
M  V30 120 1 115 98
M  V30 121 1 116 98
M  V30 122 1 117 101
M  V30 123 1 118 101
M  V30 124 1 119 102
M  V30 125 1 120 102
M  V30 126 1 121 105
M  V30 127 1 122 108
M  V30 128 1 122 105
M  V30 129 1 123 108
M  V30 130 1 124 109
M  V30 131 1 125 119
M  V30 132 1 125 109
M  V30 133 1 126 113
M  V30 134 1 127 116
M  V30 135 1 127 113
M  V30 136 1 128 116
M  V30 137 1 129 119
M  V30 138 1 130 121
M  V30 139 1 131 121
M  V30 140 1 132 122
M  V30 141 1 133 123
M  V30 142 1 134 123
M  V30 143 1 135 129
M  V30 144 1 135 124
M  V30 145 1 136 124
M  V30 146 1 137 125
M  V30 147 1 138 126
M  V30 148 1 139 126
M  V30 149 1 140 127
M  V30 150 1 141 128
M  V30 151 1 142 128
M  V30 152 1 143 129
M  V30 153 1 144 131
M  V30 154 1 145 134
M  V30 155 1 146 135
M  V30 156 1 147 138
M  V30 157 1 148 142
M  V30 158 1 148 144
M  V30 159 1 149 144
M  V30 160 1 150 144
M  V30 161 1 151 145
M  V30 162 1 152 145
M  V30 163 1 153 145
M  V30 164 1 154 146
M  V30 165 1 155 146
M  V30 166 1 156 147
M  V30 167 1 157 147
M  V30 168 1 158 147
M  V30 169 1 159 148
M  V30 170 1 160 148
M  V30 171 1 161 149
M  V30 172 1 162 149
M  V30 173 1 163 149
M  V30 174 1 164 152
M  V30 175 1 165 152
M  V30 176 1 166 152
M  V30 177 1 167 153
M  V30 178 1 168 153
M  V30 179 1 169 153
M  V30 180 1 170 154
M  V30 181 1 171 154
M  V30 182 1 172 155
M  V30 183 1 173 155
M  V30 184 1 174 156
M  V30 185 1 175 156
M  V30 186 1 176 156
M  V30 187 1 177 157
M  V30 188 1 178 157
M  V30 189 1 179 157
M  V30 190 1 180 160
M  V30 191 1 181 160
M  V30 192 1 182 161
M  V30 193 1 182 160
M  V30 194 1 183 161
M  V30 195 1 184 161
M  V30 196 1 185 166
M  V30 197 1 186 166
M  V30 198 1 187 168
M  V30 199 1 187 166
M  V30 200 1 188 167
M  V30 201 1 189 168
M  V30 202 1 190 168
M  V30 203 1 191 172
M  V30 204 1 191 171
M  V30 205 1 192 171
M  V30 206 1 193 172
M  V30 207 1 194 175
M  V30 208 1 195 176
M  V30 209 1 196 176
M  V30 210 1 197 177
M  V30 211 1 197 176
M  V30 212 1 198 177
M  V30 213 1 199 177
M  V30 214 1 200 182
M  V30 215 1 201 182
M  V30 216 1 202 187
M  V30 217 1 203 187
M  V30 218 1 204 188
M  V30 219 1 205 188
M  V30 220 1 206 191
M  V30 221 1 207 194
M  V30 222 1 208 194
M  V30 223 1 209 197
M  V30 224 1 210 197
M  V30 225 1 211 206
M  V30 226 1 211 204
M  V30 227 1 212 207
M  V30 228 1 212 204
M  V30 229 1 213 207
M  V30 230 1 213 206
M  V30 231 1 214 211
M  V30 232 1 215 212
M  V30 233 1 216 213
M  V30 END BOND
M  V30 END CTAB
M  END

$$$$
