
     RDKit          3D

  0  0  0  0  0  0  0  0  0  0999 V3000
M  V30 BEGIN CTAB
M  V30 COUNTS 162 168 0 0 0
M  V30 BEGIN ATOM
M  V30 1 C 10.4212 7.6692 12.2779 0
M  V30 2 C 11.2077 6.5486 12.5914 0
M  V30 3 C 9.1411 7.8326 12.8182 0
M  V30 4 H 10.7903 8.4205 11.5995 0
M  V30 5 C 10.6950 5.5805 13.4679 0
M  V30 6 O 12.4708 6.3296 12.0699 0
M  V30 7 C 8.6317 6.8700 13.7024 0
M  V30 8 C 8.3008 9.0483 12.4049 0
M  V30 9 C 11.5315 4.3330 13.7874 0
M  V30 10 C 9.4193 5.7567 14.0200 0
M  V30 11 C 13.0530 7.2887 11.1969 0
M  V30 12 O 7.3618 7.0638 14.2107 0
M  V30 13 H 8.8473 9.6776 11.7025 0
M  V30 14 H 7.4582 8.6402 11.8447 0
M  V30 15 C 7.7460 9.9597 13.5095 0
M  V30 16 C 10.9497 3.3653 14.8220 0
M  V30 17 H 11.6799 3.7962 12.8498 0
M  V30 18 H 12.5276 4.6450 14.1051 0
M  V30 19 H 9.0278 5.0066 14.6872 0
M  V30 20 H 13.1302 8.2605 11.6884 0
M  V30 21 H 12.4474 7.4063 10.2962 0
M  V30 22 C 14.4476 6.7869 10.8225 0
M  V30 23 C 6.9385 6.3138 15.3408 0
M  V30 24 C 8.3208 9.9726 14.7868 0
M  V30 25 C 6.6238 10.7606 13.2446 0
M  V30 26 C 10.0891 2.3500 14.3919 0
M  V30 27 C 11.2733 3.4832 16.1808 0
M  V30 28 H 14.9493 7.4834 10.1513 0
M  V30 29 H 14.3903 5.8191 10.3241 0
M  V30 30 H 15.0677 6.6676 11.7111 0
M  V30 31 H 7.7114 6.2924 16.1104 0
M  V30 32 H 6.7205 5.2864 15.0497 0
M  V30 33 C 5.6879 6.9931 15.8942 0
M  V30 34 H 9.1880 9.3596 14.9675 0
M  V30 35 C 7.7684 10.7324 15.8270 0
M  V30 36 O 6.1138 10.7442 11.9576 0
M  V30 37 C 6.0737 11.5255 14.2845 0
M  V30 38 C 9.4833 1.4733 15.3048 0
M  V30 39 H 9.8764 2.2748 13.3381 0
M  V30 40 C 10.6742 2.6023 17.0919 0
M  V30 41 O 12.1593 4.4789 16.5497 0
M  V30 42 H 4.8966 6.9927 15.1462 0
M  V30 43 H 5.8972 8.0299 16.1610 0
M  V30 44 H 5.3151 6.4883 16.7851 0
M  V30 45 O 8.2892 10.7752 17.1067 0
M  V30 46 C 6.6187 11.4922 15.5711 0
M  V30 47 C 4.9583 11.5096 11.6429 0
M  V30 48 H 5.2016 12.1342 14.1130 0
M  V30 49 O 8.6062 0.4719 14.9286 0
M  V30 50 C 9.7720 1.6185 16.6706 0
M  V30 51 H 10.8740 2.6895 18.1471 0
M  V30 52 C 12.6717 4.5118 17.8751 0
M  V30 53 C 9.4251 9.9920 17.4383 0
M  V30 54 C 5.9493 12.2848 16.6953 0
M  V30 55 H 5.1429 12.5722 11.8117 0
M  V30 56 H 4.1138 11.2042 12.2637 0
M  V30 57 C 4.6306 11.2672 10.1696 0
M  V30 58 C 8.1321 0.4133 13.5904 0
M  V30 59 C 9.0924 0.7396 17.7253 0
M  V30 60 H 11.8726 4.6400 18.6047 0
M  V30 61 H 13.1922 3.5802 18.1052 0
M  V30 62 C 13.6417 5.6897 17.9643 0
M  V30 63 H 10.2771 10.2523 16.8075 0
M  V30 64 H 9.2076 8.9317 17.3009 0
M  V30 65 C 9.7562 10.2802 18.9030 0
M  V30 66 C 5.2743 11.4066 17.7536 0
M  V30 67 H 5.1960 12.9653 16.2991 0
M  V30 68 H 6.7113 12.9267 17.1387 0
M  V30 69 H 5.4603 11.5739 9.5326 0
M  V30 70 H 3.7469 11.8277 9.8654 0
M  V30 71 H 4.4410 10.2099 9.9837 0
M  V30 72 H 8.9464 0.1691 12.9060 0
M  V30 73 H 7.7045 1.3716 13.2884 0
M  V30 74 C 7.0531 -0.6679 13.5321 0
M  V30 75 C 8.4162 1.5299 18.8471 0
M  V30 76 H 8.3331 0.0973 17.2777 0
M  V30 77 H 9.8442 0.0592 18.1245 0
M  V30 78 H 14.4556 5.5764 17.2481 0
M  V30 79 H 14.0750 5.7684 18.9608 0
M  V30 80 H 13.1314 6.6270 17.7422 0
M  V30 81 H 10.0226 11.3284 19.0378 0
M  V30 82 H 10.5903 9.6695 19.2469 0
M  V30 83 H 8.8969 10.0768 19.5420 0
M  V30 84 C 5.5667 11.5544 19.1183 0
M  V30 85 C 4.3725 10.4205 17.3367 0
M  V30 86 H 6.6406 -0.7591 12.5278 0
M  V30 87 H 6.2356 -0.4333 14.2142 0
M  V30 88 H 7.4595 -1.6372 13.8210 0
M  V30 89 C 8.9504 1.4890 20.1380 0
M  V30 90 C 7.2691 2.2921 18.5859 0
M  V30 91 C 4.9638 10.6791 20.0346 0
M  V30 92 O 6.4440 12.5572 19.4903 0
M  V30 93 C 3.7773 9.5404 18.2509 0
M  V30 94 H 4.1697 10.3310 16.2822 0
M  V30 95 C 8.3907 2.2465 21.1782 0
M  V30 96 H 9.8204 0.8786 20.3134 0
M  V30 97 O 6.7583 2.2563 17.3020 0
M  V30 98 C 6.7083 3.0463 19.6259 0
M  V30 99 C 4.1031 9.6621 19.6087 0
M  V30 100 H 5.1779 10.7576 21.0880 0
M  V30 101 C 6.9197 12.6204 20.8277 0
M  V30 102 O 2.8920 8.5423 17.8864 0
M  V30 103 O 8.8885 2.2534 22.4700 0
M  V30 104 C 7.2709 3.0491 20.9087 0
M  V30 105 C 5.6117 3.0243 16.9714 0
M  V30 106 H 5.8432 3.6613 19.4417 0
M  V30 107 C 3.5191 8.6998 20.6469 0
M  V30 108 H 7.3470 11.6631 21.1332 0
M  V30 109 H 6.1063 12.8681 21.5119 0
M  V30 110 C 7.9997 13.7009 20.8803 0
M  V30 111 C 2.3788 8.5033 16.5614 0
M  V30 112 C 10.0391 1.4832 22.7910 0
M  V30 113 C 6.7033 3.9498 22.0155 0
M  V30 114 H 5.8112 4.0869 17.1184 0
M  V30 115 H 4.7617 2.7452 17.5967 0
M  V30 116 C 5.2910 2.7430 15.5030 0
M  V30 117 C 4.3442 7.4435 20.9612 0
M  V30 118 H 2.5182 8.3989 20.3333 0
M  V30 119 H 3.3805 9.2364 21.5860 0
M  V30 120 H 7.5943 14.6690 20.5860 0
M  V30 121 H 8.8171 13.4618 20.1997 0
M  V30 122 H 8.4121 13.7973 21.8842 0
M  V30 123 H 1.8526 9.4312 16.3298 0
M  V30 124 H 3.1776 8.3779 15.8309 0
M  V30 125 C 1.4158 7.3193 16.4765 0
M  V30 126 H 10.8902 1.7900 22.1800 0
M  V30 127 H 9.8532 0.4221 22.6142 0
M  V30 128 C 10.3537 1.7161 24.2687 0
M  V30 129 C 5.8750 5.1740 21.6034 0
M  V30 130 H 6.1430 3.3146 22.7014 0
M  V30 131 H 7.5383 4.3475 22.5942 0
M  V30 132 H 6.1483 2.9685 14.8686 0
M  V30 133 H 4.4467 3.3410 15.1617 0
M  V30 134 H 5.0449 1.6912 15.3580 0
M  V30 135 C 5.6288 7.2698 20.4293 0
M  V30 136 C 3.8109 6.4642 21.8127 0
M  V30 137 H 0.9809 7.2360 15.4810 0
M  V30 138 H 0.6026 7.4289 17.1941 0
M  V30 139 H 1.9323 6.3855 16.6993 0
M  V30 140 H 10.5446 2.7718 24.4625 0
M  V30 141 H 11.2328 1.1514 24.5779 0
M  V30 142 H 9.5171 1.4084 24.8963 0
M  V30 143 C 6.4052 6.1474 20.7436 0
M  V30 144 C 4.5862 5.3351 22.1227 0
M  V30 145 H 6.0354 8.0288 19.7814 0
M  V30 146 O 2.5395 6.6811 22.3149 0
M  V30 147 O 7.6833 5.9533 20.2568 0
M  V30 148 H 4.2016 4.5754 22.7829 0
M  V30 149 C 1.9357 5.7094 23.1586 0
M  V30 150 C 8.1435 6.7329 19.1621 0
M  V30 151 H 1.8645 4.7468 22.6483 0
M  V30 152 C 0.5357 6.2108 23.5131 0
M  V30 153 H 2.5222 5.5732 24.0691 0
M  V30 154 H 8.3713 7.7462 19.4928 0
M  V30 155 H 7.3900 6.7930 18.3757 0
M  V30 156 C 9.3954 6.0504 18.6153 0
M  V30 157 H 0.5868 7.1696 24.0292 0
M  V30 158 H -0.0654 6.3483 22.6142 0
M  V30 159 H 0.0175 5.5051 24.1616 0
M  V30 160 H 9.7990 6.5791 17.7523 0
M  V30 161 H 9.1743 5.0276 18.3067 0
M  V30 162 H 10.1680 6.0091 19.3818 0
M  V30 END ATOM
M  V30 BEGIN BOND
M  V30 0 1 2 1
M  V30 1 1 3 1
M  V30 2 1 4 1
M  V30 3 1 5 2
M  V30 4 1 6 2
M  V30 5 1 7 3
M  V30 6 1 8 3
M  V30 7 1 9 5
M  V30 8 1 10 7
M  V30 9 1 10 5
M  V30 10 1 11 6
M  V30 11 1 12 7
M  V30 12 1 13 8
M  V30 13 1 14 8
M  V30 14 1 15 8
M  V30 15 1 16 9
M  V30 16 1 17 9
M  V30 17 1 18 9
M  V30 18 1 19 10
M  V30 19 1 20 11
M  V30 20 1 21 11
M  V30 21 1 22 11
M  V30 22 1 23 12
M  V30 23 1 24 15
M  V30 24 1 25 15
M  V30 25 1 26 16
M  V30 26 1 27 16
M  V30 27 1 28 22
M  V30 28 1 29 22
M  V30 29 1 30 22
M  V30 30 1 31 23
M  V30 31 1 32 23
M  V30 32 1 33 23
M  V30 33 1 34 24
M  V30 34 1 35 24
M  V30 35 1 36 25
M  V30 36 1 37 25
M  V30 37 1 38 26
M  V30 38 1 39 26
M  V30 39 1 40 27
M  V30 40 1 41 27
M  V30 41 1 42 33
M  V30 42 1 43 33
M  V30 43 1 44 33
M  V30 44 1 45 35
M  V30 45 1 46 35
M  V30 46 1 46 37
M  V30 47 1 47 36
M  V30 48 1 48 37
M  V30 49 1 49 38
M  V30 50 1 50 38
M  V30 51 1 50 40
M  V30 52 1 51 40
M  V30 53 1 52 41
M  V30 54 1 53 45
M  V30 55 1 54 46
M  V30 56 1 55 47
M  V30 57 1 56 47
M  V30 58 1 57 47
M  V30 59 1 58 49
M  V30 60 1 59 50
M  V30 61 1 60 52
M  V30 62 1 61 52
M  V30 63 1 62 52
M  V30 64 1 63 53
M  V30 65 1 64 53
M  V30 66 1 65 53
M  V30 67 1 66 54
M  V30 68 1 67 54
M  V30 69 1 68 54
M  V30 70 1 69 57
M  V30 71 1 70 57
M  V30 72 1 71 57
M  V30 73 1 72 58
M  V30 74 1 73 58
M  V30 75 1 74 58
M  V30 76 1 75 59
M  V30 77 1 76 59
M  V30 78 1 77 59
M  V30 79 1 78 62
M  V30 80 1 79 62
M  V30 81 1 80 62
M  V30 82 1 81 65
M  V30 83 1 82 65
M  V30 84 1 83 65
M  V30 85 1 84 66
M  V30 86 1 85 66
M  V30 87 1 86 74
M  V30 88 1 87 74
M  V30 89 1 88 74
M  V30 90 1 89 75
M  V30 91 1 90 75
M  V30 92 1 91 84
M  V30 93 1 92 84
M  V30 94 1 93 85
M  V30 95 1 94 85
M  V30 96 1 95 89
M  V30 97 1 96 89
M  V30 98 1 97 90
M  V30 99 1 98 90
M  V30 100 1 99 93
M  V30 101 1 99 91
M  V30 102 1 100 91
M  V30 103 1 101 92
M  V30 104 1 102 93
M  V30 105 1 103 95
M  V30 106 1 104 98
M  V30 107 1 104 95
M  V30 108 1 105 97
M  V30 109 1 106 98
M  V30 110 1 107 99
M  V30 111 1 108 101
M  V30 112 1 109 101
M  V30 113 1 110 101
M  V30 114 1 111 102
M  V30 115 1 112 103
M  V30 116 1 113 104
M  V30 117 1 114 105
M  V30 118 1 115 105
M  V30 119 1 116 105
M  V30 120 1 117 107
M  V30 121 1 118 107
M  V30 122 1 119 107
M  V30 123 1 120 110
M  V30 124 1 121 110
M  V30 125 1 122 110
M  V30 126 1 123 111
M  V30 127 1 124 111
M  V30 128 1 125 111
M  V30 129 1 126 112
M  V30 130 1 127 112
M  V30 131 1 128 112
M  V30 132 1 129 113
M  V30 133 1 130 113
M  V30 134 1 131 113
M  V30 135 1 132 116
M  V30 136 1 133 116
M  V30 137 1 134 116
M  V30 138 1 135 117
M  V30 139 1 136 117
M  V30 140 1 137 125
M  V30 141 1 138 125
M  V30 142 1 139 125
M  V30 143 1 140 128
M  V30 144 1 141 128
M  V30 145 1 142 128
M  V30 146 1 143 129
M  V30 147 1 143 135
M  V30 148 1 144 136
M  V30 149 1 144 129
M  V30 150 1 145 135
M  V30 151 1 146 136
M  V30 152 1 147 143
M  V30 153 1 148 144
M  V30 154 1 149 146
M  V30 155 1 150 147
M  V30 156 1 151 149
M  V30 157 1 152 149
M  V30 158 1 153 149
M  V30 159 1 154 150
M  V30 160 1 155 150
M  V30 161 1 156 150
M  V30 162 1 157 152
M  V30 163 1 158 152
M  V30 164 1 159 152
M  V30 165 1 160 156
M  V30 166 1 161 156
M  V30 167 1 162 156
M  V30 END BOND
M  V30 END CTAB
M  END

$$$$
