
     RDKit          3D

  0  0  0  0  0  0  0  0  0  0999 V3000
M  V30 BEGIN CTAB
M  V30 COUNTS 198 216 0 0 0
M  V30 BEGIN ATOM
M  V30 1 C 13.8810 10.0553 7.3413 0
M  V30 2 N 13.3952 11.3990 7.0117 0
M  V30 3 C 14.5921 10.0073 8.6883 0
M  V30 4 H 14.5872 9.7275 6.5779 0
M  V30 5 H 13.0477 9.3498 7.3378 0
M  V30 6 C 12.3121 11.8678 7.8832 0
M  V30 7 C 12.8007 11.5001 5.6932 0
M  V30 8 C 15.9007 10.4839 8.8166 0
M  V30 9 C 13.9004 9.5906 9.8280 0
M  V30 10 N 11.5360 12.8512 7.1166 0
M  V30 11 H 12.7183 12.2645 8.8179 0
M  V30 12 H 11.6383 11.0510 8.1539 0
M  V30 13 C 12.1623 12.8770 5.8019 0
M  V30 14 H 12.0127 10.7494 5.5838 0
M  V30 15 C 13.7198 11.4473 4.4561 0
M  V30 16 H 16.4138 10.8551 7.9417 0
M  V30 17 C 16.5242 10.5354 10.0679 0
M  V30 18 H 12.8628 9.2986 9.7485 0
M  V30 19 C 14.5316 9.5598 11.0762 0
M  V30 20 C 11.5193 14.1832 7.7358 0
M  V30 21 H 12.9679 13.6171 5.7941 0
M  V30 22 C 11.2527 13.1331 4.5850 0
M  V30 23 H 14.2254 10.4842 4.3913 0
M  V30 24 H 14.5040 12.2002 4.5502 0
M  V30 25 C 12.8937 11.7258 3.1759 0
M  V30 26 C 15.8436 10.0271 11.1824 0
M  V30 27 C 17.9614 11.0600 10.1680 0
M  V30 28 C 13.7629 9.2438 12.3562 0
M  V30 29 C 10.6384 14.3115 8.9808 0
M  V30 30 H 11.1103 14.8907 7.0131 0
M  V30 31 H 12.5325 14.5259 7.9573 0
M  V30 32 H 10.7683 14.1058 4.6723 0
M  V30 33 H 10.4508 12.3935 4.5674 0
M  V30 34 C 12.0746 13.0405 3.2748 0
M  V30 35 H 13.5531 11.7626 2.3075 0
M  V30 36 H 12.2121 10.8915 2.9998 0
M  V30 37 H 16.3210 10.0524 12.1518 0
M  V30 38 N 18.3426 11.5573 11.4969 0
M  V30 39 H 18.6150 10.2232 9.9195 0
M  V30 40 H 18.1285 11.8186 9.4008 0
M  V30 41 N 12.5985 8.3652 12.1888 0
M  V30 42 H 14.4354 8.8792 13.1351 0
M  V30 43 H 13.4053 10.2142 12.7078 0
M  V30 44 C 9.5004 13.5178 9.1727 0
M  V30 45 C 10.8736 15.3738 9.8577 0
M  V30 46 H 11.4123 13.1331 2.4127 0
M  V30 47 H 12.7567 13.8910 3.2206 0
M  V30 48 C 17.6010 12.7573 11.8865 0
M  V30 49 C 19.6990 12.0655 11.5820 0
M  V30 50 C 11.6923 8.5020 13.3243 0
M  V30 51 C 12.8812 6.9413 12.1784 0
M  V30 52 H 9.2779 12.7363 8.4604 0
M  V30 53 C 8.6382 13.7359 10.2525 0
M  V30 54 H 11.7165 16.0266 9.6834 0
M  V30 55 C 10.0363 15.6069 10.9563 0
M  V30 56 N 18.3245 13.3487 13.0189 0
M  V30 57 H 16.5544 12.5336 12.1062 0
M  V30 58 H 17.5884 13.4879 11.0727 0
M  V30 59 C 19.6448 12.7197 12.9595 0
M  V30 60 H 19.8473 12.8392 10.8222 0
M  V30 61 C 20.8921 11.0943 11.5179 0
M  V30 62 N 10.9609 7.2381 13.4710 0
M  V30 63 H 12.2419 8.6654 14.2547 0
M  V30 64 H 11.0473 9.3718 13.1735 0
M  V30 65 C 11.4752 6.3898 12.4054 0
M  V30 66 H 13.5044 6.6832 13.0393 0
M  V30 67 C 13.4947 6.3091 10.9140 0
M  V30 68 C 8.9099 14.7957 11.1280 0
M  V30 69 C 7.3418 12.9221 10.3235 0
M  V30 70 C 10.2316 16.7933 11.9079 0
M  V30 71 C 17.6788 13.0699 14.3121 0
M  V30 72 H 19.7006 11.9126 13.6957 0
M  V30 73 C 20.8850 13.6084 13.1567 0
M  V30 74 H 20.9103 10.5720 10.5615 0
M  V30 75 H 20.7858 10.3249 12.2844 0
M  V30 76 C 22.2067 11.8846 11.7437 0
M  V30 77 C 9.4970 7.3904 13.4486 0
M  V30 78 H 10.8989 6.5631 11.4923 0
M  V30 79 C 11.5379 4.8733 12.6669 0
M  V30 80 H 14.4823 6.7269 10.7187 0
M  V30 81 H 12.8796 6.5548 10.0471 0
M  V30 82 C 13.5651 4.7704 11.0742 0
M  V30 83 H 8.2275 15.0000 11.9404 0
M  V30 84 N 6.5923 13.0185 11.5847 0
M  V30 85 H 6.7095 13.3284 9.5328 0
M  V30 86 H 7.5366 11.8810 10.0581 0
M  V30 87 N 11.5148 17.5064 11.7978 0
M  V30 88 H 9.4398 17.5045 11.6675 0
M  V30 89 H 10.0612 16.4604 12.9341 0
M  V30 90 C 16.2801 13.6705 14.4471 0
M  V30 91 H 18.2887 13.4606 15.1278 0
M  V30 92 H 17.6169 11.9911 14.4729 0
M  V30 93 H 20.8406 14.1004 14.1286 0
M  V30 94 H 20.8884 14.4068 12.4131 0
M  V30 95 C 22.1728 12.7513 13.0335 0
M  V30 96 H 23.0530 11.1968 11.7800 0
M  V30 97 H 22.3861 12.5329 10.8840 0
M  V30 98 C 8.9608 8.3942 14.4756 0
M  V30 99 H 9.0329 6.4242 13.6484 0
M  V30 100 H 9.1606 7.6903 12.4540 0
M  V30 101 H 10.5394 4.4802 12.8587 0
M  V30 102 H 12.1209 4.6835 13.5694 0
M  V30 103 C 12.1963 4.1515 11.4644 0
M  V30 104 H 13.9298 4.3172 10.1512 0
M  V30 105 H 14.3021 4.5241 11.8408 0
M  V30 106 C 7.1749 12.2395 12.6852 0
M  V30 107 C 5.2273 12.5308 11.4599 0
M  V30 108 C 12.6608 16.7239 12.2761 0
M  V30 109 C 11.5185 18.7042 12.6332 0
M  V30 110 C 15.2307 12.8730 14.9118 0
M  V30 111 C 16.0343 15.0128 14.1375 0
M  V30 112 H 23.0527 13.3954 13.0724 0
M  V30 113 H 22.2463 12.0951 13.9027 0
M  V30 114 C 9.5563 8.5399 15.7329 0
M  V30 115 C 7.8540 9.1842 14.1551 0
M  V30 116 H 12.3177 3.0907 11.6884 0
M  V30 117 H 11.5242 4.2014 10.6058 0
M  V30 118 N 6.1057 11.3898 13.2247 0
M  V30 119 H 7.5501 12.9413 13.4342 0
M  V30 120 H 8.0228 11.6224 12.3763 0
M  V30 121 C 4.8954 12.1114 12.8844 0
M  V30 122 H 5.2145 11.6358 10.8309 0
M  V30 123 C 4.1617 13.5168 10.9415 0
M  V30 124 N 13.1258 17.3585 13.5119 0
M  V30 125 H 12.4266 15.6674 12.4282 0
M  V30 126 H 13.4368 16.7611 11.5067 0
M  V30 127 C 12.9333 18.7605 13.1943 0
M  V30 128 H 10.8415 18.5613 13.4808 0
M  V30 129 C 11.1675 20.0469 11.9666 0
M  V30 130 H 15.3992 11.8297 15.1382 0
M  V30 131 C 13.9409 13.3949 15.0404 0
M  V30 132 H 16.8501 15.6272 13.7849 0
M  V30 133 C 14.7401 15.5393 14.2126 0
M  V30 134 H 10.4208 7.9404 15.9798 0
M  V30 135 C 9.1423 9.5470 16.6088 0
M  V30 136 H 7.3639 9.0601 13.2000 0
M  V30 137 C 7.4372 10.2132 15.0095 0
M  V30 138 C 6.2466 11.1059 14.6585 0
M  V30 139 H 4.8100 13.0065 13.5071 0
M  V30 140 C 3.5549 11.3493 12.9073 0
M  V30 141 H 4.4086 13.8516 9.9340 0
M  V30 142 H 4.1580 14.4106 11.5675 0
M  V30 143 C 2.7603 12.8577 10.9770 0
M  V30 144 C 14.5121 17.0104 13.8532 0
M  V30 145 H 13.6224 19.0558 12.3974 0
M  V30 146 C 13.0046 19.8095 14.3208 0
M  V30 147 H 10.1656 20.0032 11.5391 0
M  V30 148 H 11.8461 20.2297 11.1320 0
M  V30 149 C 11.2764 21.1980 12.9999 0
M  V30 150 C 13.7065 14.7272 14.6970 0
M  V30 151 C 12.7606 12.4832 15.3503 0
M  V30 152 C 8.0757 10.3741 16.2440 0
M  V30 153 C 10.0043 9.8875 17.8232 0
M  V30 154 H 5.3575 10.5791 15.0061 0
M  V30 155 H 6.2905 12.0319 15.2352 0
M  V30 156 H 3.3269 10.9988 13.9136 0
M  V30 157 H 3.6308 10.4583 12.2817 0
M  V30 158 C 2.4221 12.2561 12.3668 0
M  V30 159 H 1.9993 13.5852 10.6905 0
M  V30 160 H 2.7175 12.0677 10.2249 0
M  V30 161 H 14.7975 17.5874 14.7334 0
M  V30 162 H 15.1992 17.3029 13.0566 0
M  V30 163 H 13.9968 19.8230 14.7714 0
M  V30 164 H 12.3094 19.5416 15.1181 0
M  V30 165 C 12.6336 21.2035 13.7551 0
M  V30 166 H 11.1215 22.1578 12.5048 0
M  V30 167 H 10.4665 21.1021 13.7254 0
M  V30 168 H 12.7040 15.1248 14.7660 0
M  V30 169 N 12.9934 11.5519 16.4651 0
M  V30 170 H 11.8494 13.0651 15.5070 0
M  V30 171 H 12.5787 11.9250 14.4297 0
M  V30 172 H 7.7872 11.1831 16.8987 0
M  V30 173 N 10.9722 10.9408 17.4905 0
M  V30 174 H 9.3591 10.2380 18.6295 0
M  V30 175 H 10.5252 8.9944 18.1734 0
M  V30 176 H 1.4886 11.6939 12.3121 0
M  V30 177 H 2.2428 13.0673 13.0748 0
M  V30 178 H 12.6077 21.9378 14.5617 0
M  V30 179 H 13.4199 21.5344 13.0742 0
M  V30 180 C 11.9444 10.5331 16.4758 0
M  V30 181 C 12.8385 12.2223 17.7594 0
M  V30 182 C 11.8836 11.3272 18.5507 0
M  V30 183 H 12.3973 9.5707 16.7307 0
M  V30 184 H 11.4692 10.4022 15.5009 0
M  V30 185 H 12.3354 13.1828 17.6168 0
M  V30 186 C 14.0973 12.4940 18.5999 0
M  V30 187 H 12.4241 10.4432 18.9029 0
M  V30 188 C 11.3647 12.0906 19.7819 0
M  V30 189 H 14.7955 13.1103 18.0323 0
M  V30 190 H 14.6161 11.5563 18.8031 0
M  V30 191 C 13.7004 13.1949 19.9268 0
M  V30 192 H 10.6321 11.4918 20.3227 0
M  V30 193 H 10.8461 12.9969 19.4653 0
M  V30 194 C 12.5648 12.4586 20.6929 0
M  V30 195 H 14.5769 13.2985 20.5679 0
M  V30 196 H 13.3741 14.2124 19.7033 0
M  V30 197 H 12.2233 13.0707 21.5288 0
M  V30 198 H 12.9692 11.5467 21.1360 0
M  V30 END ATOM
M  V30 BEGIN BOND
M  V30 0 1 2 1
M  V30 1 1 3 1
M  V30 2 1 4 1
M  V30 3 1 5 1
M  V30 4 1 6 2
M  V30 5 1 7 2
M  V30 6 1 8 3
M  V30 7 1 9 3
M  V30 8 1 10 6
M  V30 9 1 11 6
M  V30 10 1 12 6
M  V30 11 1 13 10
M  V30 12 1 13 7
M  V30 13 1 14 7
M  V30 14 1 15 7
M  V30 15 1 16 8
M  V30 16 1 17 8
M  V30 17 1 18 9
M  V30 18 1 19 9
M  V30 19 1 20 10
M  V30 20 1 21 13
M  V30 21 1 22 13
M  V30 22 1 23 15
M  V30 23 1 24 15
M  V30 24 1 25 15
M  V30 25 1 26 19
M  V30 26 1 26 17
M  V30 27 1 27 17
M  V30 28 1 28 19
M  V30 29 1 29 20
M  V30 30 1 30 20
M  V30 31 1 31 20
M  V30 32 1 32 22
M  V30 33 1 33 22
M  V30 34 1 34 25
M  V30 35 1 34 22
M  V30 36 1 35 25
M  V30 37 1 36 25
M  V30 38 1 37 26
M  V30 39 1 38 27
M  V30 40 1 39 27
M  V30 41 1 40 27
M  V30 42 1 41 28
M  V30 43 1 42 28
M  V30 44 1 43 28
M  V30 45 1 44 29
M  V30 46 1 45 29
M  V30 47 1 46 34
M  V30 48 1 47 34
M  V30 49 1 48 38
M  V30 50 1 49 38
M  V30 51 1 50 41
M  V30 52 1 51 41
M  V30 53 1 52 44
M  V30 54 1 53 44
M  V30 55 1 54 45
M  V30 56 1 55 45
M  V30 57 1 56 48
M  V30 58 1 57 48
M  V30 59 1 58 48
M  V30 60 1 59 56
M  V30 61 1 59 49
M  V30 62 1 60 49
M  V30 63 1 61 49
M  V30 64 1 62 50
M  V30 65 1 63 50
M  V30 66 1 64 50
M  V30 67 1 65 62
M  V30 68 1 65 51
M  V30 69 1 66 51
M  V30 70 1 67 51
M  V30 71 1 68 55
M  V30 72 1 68 53
M  V30 73 1 69 53
M  V30 74 1 70 55
M  V30 75 1 71 56
M  V30 76 1 72 59
M  V30 77 1 73 59
M  V30 78 1 74 61
M  V30 79 1 75 61
M  V30 80 1 76 61
M  V30 81 1 77 62
M  V30 82 1 78 65
M  V30 83 1 79 65
M  V30 84 1 80 67
M  V30 85 1 81 67
M  V30 86 1 82 67
M  V30 87 1 83 68
M  V30 88 1 84 69
M  V30 89 1 85 69
M  V30 90 1 86 69
M  V30 91 1 87 70
M  V30 92 1 88 70
M  V30 93 1 89 70
M  V30 94 1 90 71
M  V30 95 1 91 71
M  V30 96 1 92 71
M  V30 97 1 93 73
M  V30 98 1 94 73
M  V30 99 1 95 76
M  V30 100 1 95 73
M  V30 101 1 96 76
M  V30 102 1 97 76
M  V30 103 1 98 77
M  V30 104 1 99 77
M  V30 105 1 100 77
M  V30 106 1 101 79
M  V30 107 1 102 79
M  V30 108 1 103 82
M  V30 109 1 103 79
M  V30 110 1 104 82
M  V30 111 1 105 82
M  V30 112 1 106 84
M  V30 113 1 107 84
M  V30 114 1 108 87
M  V30 115 1 109 87
M  V30 116 1 110 90
M  V30 117 1 111 90
M  V30 118 1 112 95
M  V30 119 1 113 95
M  V30 120 1 114 98
M  V30 121 1 115 98
M  V30 122 1 116 103
M  V30 123 1 117 103
M  V30 124 1 118 106
M  V30 125 1 119 106
M  V30 126 1 120 106
M  V30 127 1 121 118
M  V30 128 1 121 107
M  V30 129 1 122 107
M  V30 130 1 123 107
M  V30 131 1 124 108
M  V30 132 1 125 108
M  V30 133 1 126 108
M  V30 134 1 127 124
M  V30 135 1 127 109
M  V30 136 1 128 109
M  V30 137 1 129 109
M  V30 138 1 130 110
M  V30 139 1 131 110
M  V30 140 1 132 111
M  V30 141 1 133 111
M  V30 142 1 134 114
M  V30 143 1 135 114
M  V30 144 1 136 115
M  V30 145 1 137 115
M  V30 146 1 138 137
M  V30 147 1 138 118
M  V30 148 1 139 121
M  V30 149 1 140 121
M  V30 150 1 141 123
M  V30 151 1 142 123
M  V30 152 1 143 123
M  V30 153 1 144 133
M  V30 154 1 144 124
M  V30 155 1 145 127
M  V30 156 1 146 127
M  V30 157 1 147 129
M  V30 158 1 148 129
M  V30 159 1 149 129
M  V30 160 1 150 133
M  V30 161 1 150 131
M  V30 162 1 151 131
M  V30 163 1 152 137
M  V30 164 1 152 135
M  V30 165 1 153 135
M  V30 166 1 154 138
M  V30 167 1 155 138
M  V30 168 1 156 140
M  V30 169 1 157 140
M  V30 170 1 158 143
M  V30 171 1 158 140
M  V30 172 1 159 143
M  V30 173 1 160 143
M  V30 174 1 161 144
M  V30 175 1 162 144
M  V30 176 1 163 146
M  V30 177 1 164 146
M  V30 178 1 165 149
M  V30 179 1 165 146
M  V30 180 1 166 149
M  V30 181 1 167 149
M  V30 182 1 168 150
M  V30 183 1 169 151
M  V30 184 1 170 151
M  V30 185 1 171 151
M  V30 186 1 172 152
M  V30 187 1 173 153
M  V30 188 1 174 153
M  V30 189 1 175 153
M  V30 190 1 176 158
M  V30 191 1 177 158
M  V30 192 1 178 165
M  V30 193 1 179 165
M  V30 194 1 180 173
M  V30 195 1 180 169
M  V30 196 1 181 169
M  V30 197 1 182 181
M  V30 198 1 182 173
M  V30 199 1 183 180
M  V30 200 1 184 180
M  V30 201 1 185 181
M  V30 202 1 186 181
M  V30 203 1 187 182
M  V30 204 1 188 182
M  V30 205 1 189 186
M  V30 206 1 190 186
M  V30 207 1 191 186
M  V30 208 1 192 188
M  V30 209 1 193 188
M  V30 210 1 194 191
M  V30 211 1 194 188
M  V30 212 1 195 191
M  V30 213 1 196 191
M  V30 214 1 197 194
M  V30 215 1 198 194
M  V30 END BOND
M  V30 END CTAB
M  END

$$$$
