
     RDKit          3D

  0  0  0  0  0  0  0  0  0  0999 V3000
M  V30 BEGIN CTAB
M  V30 COUNTS 162 168 0 0 0
M  V30 BEGIN ATOM
M  V30 1 C 2.8683 10.3363 5.1792 0
M  V30 2 C 2.9147 9.6279 6.3890 0
M  V30 3 C 1.6501 10.6839 4.5887 0
M  V30 4 H 3.7751 10.6261 4.6732 0
M  V30 5 C 1.7054 9.2852 7.0123 0
M  V30 6 O 4.0935 9.2609 7.0158 0
M  V30 7 C 0.4408 10.3257 5.2029 0
M  V30 8 C 1.6628 11.5143 3.3093 0
M  V30 9 C 1.6940 8.5936 8.3718 0
M  V30 10 C 0.4872 9.6325 6.4216 0
M  V30 11 C 5.3349 9.4956 6.3652 0
M  V30 12 O -0.7380 10.6940 4.5766 0
M  V30 13 H 0.8014 12.1833 3.3078 0
M  V30 14 H 2.5242 12.1833 3.3108 0
M  V30 15 C 1.6755 10.6839 2.0300 0
M  V30 16 C 1.6764 7.0705 8.2936 0
M  V30 17 H 0.8351 8.9324 8.9525 0
M  V30 18 H 2.5581 8.9248 8.9491 0
M  V30 19 H -0.4197 9.3472 6.9300 0
M  V30 20 H 5.4962 10.5651 6.2179 0
M  V30 21 H 5.3543 9.0074 5.3887 0
M  V30 22 C 6.4388 8.9208 7.2529 0
M  V30 23 C -1.9804 10.2561 5.1096 0
M  V30 24 C 2.8848 10.3257 1.4157 0
M  V30 25 C 0.4574 10.3364 1.4394 0
M  V30 26 C 0.4649 6.3632 8.2932 0
M  V30 27 C 2.8924 6.3812 8.2861 0
M  V30 28 H 7.4206 9.0742 6.8060 0
M  V30 29 H 6.2986 7.8507 7.4011 0
M  V30 30 H 6.4347 9.3975 8.2332 0
M  V30 31 H -2.1358 10.6650 6.1097 0
M  V30 32 H -2.0065 9.1665 5.1757 0
M  V30 33 C -3.0842 10.7438 4.1710 0
M  V30 34 C 2.8384 9.6327 0.1969 0
M  V30 35 O 4.0636 10.6939 2.0420 0
M  V30 36 C 0.4109 9.6281 0.2295 0
M  V30 37 H -0.4495 10.6261 1.9454 0
M  V30 38 C 0.5069 4.9611 8.3033 0
M  V30 39 O -0.7116 7.0934 8.3004 0
M  V30 40 C 2.9343 4.9792 8.2773 0
M  V30 41 H 3.8013 6.9612 8.2825 0
M  V30 42 H -2.9489 10.3362 3.1698 0
M  V30 43 H -3.0739 11.8311 4.0936 0
M  V30 44 H -4.0668 10.4393 4.5300 0
M  V30 45 C 1.6202 9.2856 -0.3938 0
M  V30 46 H 3.7453 9.3474 -0.3115 0
M  V30 47 C 5.3060 10.2562 1.5090 0
M  V30 48 O -0.7679 9.2612 -0.3973 0
M  V30 49 C 1.7229 4.2720 8.2953 0
M  V30 50 H -0.4019 4.3810 8.3123 0
M  V30 51 C -1.9564 6.4166 8.1916 0
M  V30 52 O 4.1108 4.2490 8.2691 0
M  V30 53 C 1.6315 8.5940 -1.7533 0
M  V30 54 C 6.4098 10.7439 2.4476 0
M  V30 55 H 5.4614 10.6652 0.5089 0
M  V30 56 H 5.3321 9.1666 1.4428 0
M  V30 57 C -2.0093 9.4959 0.2534 0
M  V30 58 C 1.7066 2.7489 8.3747 0
M  V30 59 H -2.1127 5.7585 9.0484 0
M  V30 60 H -1.9859 5.8112 7.2834 0
M  V30 61 C -3.0567 7.4768 8.1422 0
M  V30 62 C 5.3534 4.9252 8.1348 0
M  V30 63 C 1.6489 7.0708 -1.6752 0
M  V30 64 H 0.7674 8.9253 -2.3305 0
M  V30 65 H 2.4903 8.9328 -2.3341 0
M  V30 66 H 6.2746 10.3361 3.4487 0
M  V30 67 H 6.3995 11.8311 2.5251 0
M  V30 68 H 7.3924 10.4393 2.0885 0
M  V30 69 C -3.1133 8.9213 -0.6344 0
M  V30 70 H -2.1705 10.5654 0.4008 0
M  V30 71 H -2.0287 9.0075 1.2298 0
M  V30 72 C 1.6741 2.0574 7.0155 0
M  V30 73 H 2.5746 2.4101 8.9415 0
M  V30 74 H 0.8519 2.4182 8.9660 0
M  V30 75 H -2.9208 8.1358 7.2854 0
M  V30 76 H -3.0426 8.0915 9.0423 0
M  V30 77 H -4.0410 7.0167 8.0618 0
M  V30 78 H 5.5250 5.5879 8.9851 0
M  V30 79 H 5.3662 5.5257 7.2229 0
M  V30 80 C 6.4530 3.8651 8.0710 0
M  V30 81 C 0.4329 6.3816 -1.6673 0
M  V30 82 C 2.8605 6.3636 -1.6746 0
M  V30 83 H -4.0950 9.0747 -0.1875 0
M  V30 84 H -2.9731 7.8512 -0.7828 0
M  V30 85 H -3.1092 9.3982 -1.6147 0
M  V30 86 C 2.8832 1.7189 6.4015 0
M  V30 87 C 0.4557 1.7077 6.4146 0
M  V30 88 H 6.3016 3.2010 7.2208 0
M  V30 89 H 6.4561 3.2558 8.9749 0
M  V30 90 H 7.4354 4.3252 7.9695 0
M  V30 91 C 0.3910 4.9795 -1.6582 0
M  V30 92 H -0.4760 6.9616 -1.6637 0
M  V30 93 C 2.8184 4.9615 -1.6844 0
M  V30 94 O 4.0369 7.0938 -1.6819 0
M  V30 95 C 2.9114 1.0277 5.1811 0
M  V30 96 H 3.7975 2.0097 6.8933 0
M  V30 97 C 0.4839 1.0011 5.2030 0
M  V30 98 O -0.7133 2.0665 7.0642 0
M  V30 99 C 1.6024 4.2724 -1.6762 0
M  V30 100 O -0.7855 4.2494 -1.6498 0
M  V30 101 H 3.7272 4.3814 -1.6934 0
M  V30 102 C 5.2817 6.4170 -1.5730 0
M  V30 103 O 4.0807 0.6673 4.5330 0
M  V30 104 C 1.6931 0.6624 4.5891 0
M  V30 105 H -0.4306 0.7058 4.7142 0
M  V30 106 C -1.9651 1.8292 6.4352 0
M  V30 107 C 1.6187 2.7493 -1.7554 0
M  V30 108 C -2.0280 4.9256 -1.5155 0
M  V30 109 H 5.4380 5.7587 -2.4297 0
M  V30 110 H 5.3112 5.8118 -0.6646 0
M  V30 111 C 6.3820 7.4773 -1.5238 0
M  V30 112 C 5.3301 1.1101 5.0451 0
M  V30 113 C 1.6628 -0.1675 3.3096 0
M  V30 114 H -2.1250 0.7597 6.2865 0
M  V30 115 H -2.0038 2.3216 5.4614 0
M  V30 116 C -3.0548 2.3964 7.3453 0
M  V30 117 C 1.6514 2.0579 -0.3962 0
M  V30 118 H 0.7506 2.4104 -2.3222 0
M  V30 119 H 2.4733 2.4185 -2.3467 0
M  V30 120 H -2.1997 5.5880 -2.3660 0
M  V30 121 H -2.0408 5.5263 -0.6037 0
M  V30 122 C -3.1277 3.8654 -1.4514 0
M  V30 123 H 6.2461 8.1364 -0.6671 0
M  V30 124 H 6.3679 8.0917 -2.4241 0
M  V30 125 H 7.3663 7.0171 -1.4434 0
M  V30 126 H 5.5041 0.7014 6.0422 0
M  V30 127 H 5.3527 2.1997 5.1114 0
M  V30 128 C 6.4201 0.6273 4.0880 0
M  V30 129 C 1.6325 0.6623 2.0300 0
M  V30 130 H 0.8014 -0.8364 3.3222 0
M  V30 131 H 2.5242 -0.8364 3.2969 0
M  V30 132 H -2.9156 3.4664 7.4953 0
M  V30 133 H -3.0309 1.9158 8.3235 0
M  V30 134 H -4.0441 2.2411 6.9160 0
M  V30 135 C 2.8698 1.7081 0.2046 0
M  V30 136 C 0.4424 1.7191 0.2177 0
M  V30 137 H -2.9761 3.2015 -0.6011 0
M  V30 138 H -3.1308 3.2560 -2.3552 0
M  V30 139 H -4.1101 4.3256 -1.3499 0
M  V30 140 H 6.2672 1.0355 3.0897 0
M  V30 141 H 7.4073 0.9349 4.4313 0
M  V30 142 H 6.4124 -0.4599 4.0095 0
M  V30 143 C 2.8417 1.0013 1.4161 0
M  V30 144 C 0.4142 1.0277 1.4379 0
M  V30 145 O 4.0388 2.0670 -0.4449 0
M  V30 146 H -0.4720 2.0100 -0.2740 0
M  V30 147 H 3.7562 0.7061 1.9049 0
M  V30 148 O -0.7550 0.6673 2.0861 0
M  V30 149 C 5.2907 1.8296 0.1839 0
M  V30 150 C -2.0044 1.1101 1.5741 0
M  V30 151 H 5.4505 0.7601 0.3325 0
M  V30 152 H 5.3294 2.3218 1.1578 0
M  V30 153 C 6.3803 2.3969 -0.7262 0
M  V30 154 H -2.1785 0.7016 0.5769 0
M  V30 155 H -2.0271 2.1998 1.5080 0
M  V30 156 C -3.0944 0.6272 2.5311 0
M  V30 157 H 7.3696 2.2415 -0.2969 0
M  V30 158 H 6.2411 3.4670 -0.8758 0
M  V30 159 H 6.3563 1.9165 -1.7044 0
M  V30 160 H -3.0867 -0.4600 2.6095 0
M  V30 161 H -2.9415 1.0354 3.5295 0
M  V30 162 H -4.0817 0.9349 2.1879 0
M  V30 END ATOM
M  V30 BEGIN BOND
M  V30 0 1 2 1
M  V30 1 1 3 1
M  V30 2 1 4 1
M  V30 3 1 5 2
M  V30 4 1 6 2
M  V30 5 1 7 3
M  V30 6 1 8 3
M  V30 7 1 9 5
M  V30 8 1 10 7
M  V30 9 1 10 5
M  V30 10 1 11 6
M  V30 11 1 12 7
M  V30 12 1 13 8
M  V30 13 1 14 8
M  V30 14 1 15 8
M  V30 15 1 16 9
M  V30 16 1 17 9
M  V30 17 1 18 9
M  V30 18 1 19 10
M  V30 19 1 20 11
M  V30 20 1 21 11
M  V30 21 1 22 11
M  V30 22 1 23 12
M  V30 23 1 24 15
M  V30 24 1 25 15
M  V30 25 1 26 16
M  V30 26 1 27 16
M  V30 27 1 28 22
M  V30 28 1 29 22
M  V30 29 1 30 22
M  V30 30 1 31 23
M  V30 31 1 32 23
M  V30 32 1 33 23
M  V30 33 1 34 24
M  V30 34 1 35 24
M  V30 35 1 36 25
M  V30 36 1 37 25
M  V30 37 1 38 26
M  V30 38 1 39 26
M  V30 39 1 40 27
M  V30 40 1 41 27
M  V30 41 1 42 33
M  V30 42 1 43 33
M  V30 43 1 44 33
M  V30 44 1 45 36
M  V30 45 1 45 34
M  V30 46 1 46 34
M  V30 47 1 47 35
M  V30 48 1 48 36
M  V30 49 1 49 40
M  V30 50 1 49 38
M  V30 51 1 50 38
M  V30 52 1 51 39
M  V30 53 1 52 40
M  V30 54 1 53 45
M  V30 55 1 54 47
M  V30 56 1 55 47
M  V30 57 1 56 47
M  V30 58 1 57 48
M  V30 59 1 58 49
M  V30 60 1 59 51
M  V30 61 1 60 51
M  V30 62 1 61 51
M  V30 63 1 62 52
M  V30 64 1 63 53
M  V30 65 1 64 53
M  V30 66 1 65 53
M  V30 67 1 66 54
M  V30 68 1 67 54
M  V30 69 1 68 54
M  V30 70 1 69 57
M  V30 71 1 70 57
M  V30 72 1 71 57
M  V30 73 1 72 58
M  V30 74 1 73 58
M  V30 75 1 74 58
M  V30 76 1 75 61
M  V30 77 1 76 61
M  V30 78 1 77 61
M  V30 79 1 78 62
M  V30 80 1 79 62
M  V30 81 1 80 62
M  V30 82 1 81 63
M  V30 83 1 82 63
M  V30 84 1 83 69
M  V30 85 1 84 69
M  V30 86 1 85 69
M  V30 87 1 86 72
M  V30 88 1 87 72
M  V30 89 1 88 80
M  V30 90 1 89 80
M  V30 91 1 90 80
M  V30 92 1 91 81
M  V30 93 1 92 81
M  V30 94 1 93 82
M  V30 95 1 94 82
M  V30 96 1 95 86
M  V30 97 1 96 86
M  V30 98 1 97 87
M  V30 99 1 98 87
M  V30 100 1 99 93
M  V30 101 1 99 91
M  V30 102 1 100 91
M  V30 103 1 101 93
M  V30 104 1 102 94
M  V30 105 1 103 95
M  V30 106 1 104 97
M  V30 107 1 104 95
M  V30 108 1 105 97
M  V30 109 1 106 98
M  V30 110 1 107 99
M  V30 111 1 108 100
M  V30 112 1 109 102
M  V30 113 1 110 102
M  V30 114 1 111 102
M  V30 115 1 112 103
M  V30 116 1 113 104
M  V30 117 1 114 106
M  V30 118 1 115 106
M  V30 119 1 116 106
M  V30 120 1 117 107
M  V30 121 1 118 107
M  V30 122 1 119 107
M  V30 123 1 120 108
M  V30 124 1 121 108
M  V30 125 1 122 108
M  V30 126 1 123 111
M  V30 127 1 124 111
M  V30 128 1 125 111
M  V30 129 1 126 112
M  V30 130 1 127 112
M  V30 131 1 128 112
M  V30 132 1 129 113
M  V30 133 1 130 113
M  V30 134 1 131 113
M  V30 135 1 132 116
M  V30 136 1 133 116
M  V30 137 1 134 116
M  V30 138 1 135 117
M  V30 139 1 136 117
M  V30 140 1 137 122
M  V30 141 1 138 122
M  V30 142 1 139 122
M  V30 143 1 140 128
M  V30 144 1 141 128
M  V30 145 1 142 128
M  V30 146 1 143 135
M  V30 147 1 143 129
M  V30 148 1 144 136
M  V30 149 1 144 129
M  V30 150 1 145 135
M  V30 151 1 146 136
M  V30 152 1 147 143
M  V30 153 1 148 144
M  V30 154 1 149 145
M  V30 155 1 150 148
M  V30 156 1 151 149
M  V30 157 1 152 149
M  V30 158 1 153 149
M  V30 159 1 154 150
M  V30 160 1 155 150
M  V30 161 1 156 150
M  V30 162 1 157 153
M  V30 163 1 158 153
M  V30 164 1 159 153
M  V30 165 1 160 156
M  V30 166 1 161 156
M  V30 167 1 162 156
M  V30 END BOND
M  V30 END CTAB
M  END

$$$$
