
     RDKit          3D

  0  0  0  0  0  0  0  0  0  0999 V3000
M  V30 BEGIN CTAB
M  V30 COUNTS 208 248 0 0 0
M  V30 BEGIN ATOM
M  V30 1 C 19.6324 13.6721 12.8957 0
M  V30 2 C 19.1099 12.9579 13.9826 0
M  V30 3 F 20.0747 14.9356 13.0906 0
M  V30 4 C 19.6862 13.0913 11.6213 0
M  V30 5 C 18.6380 11.6508 13.8140 0
M  V30 6 F 19.0513 13.5505 15.1976 0
M  V30 7 C 19.2139 11.7835 11.4607 0
M  V30 8 B 20.2382 13.8752 10.3538 0
M  V30 9 B 18.0039 10.8222 15.0102 0
M  V30 10 C 18.6957 11.0752 12.5395 0
M  V30 11 H 19.2377 11.3098 10.4874 0
M  V30 12 O 20.7207 15.1834 10.3684 0
M  V30 13 O 20.1516 13.3294 9.0741 0
M  V30 14 O 17.3138 9.6382 14.7708 0
M  V30 15 O 18.1968 11.0932 16.3668 0
M  V30 16 H 18.3301 10.0691 12.3773 0
M  V30 17 C 20.8946 15.4473 9.0464 0
M  V30 18 C 20.5531 14.3563 8.2857 0
M  V30 19 C 17.0940 9.1666 16.0208 0
M  V30 20 C 17.6088 10.0221 16.9655 0
M  V30 21 C 21.3311 16.6278 8.4544 0
M  V30 22 C 20.6203 14.3706 6.8978 0
M  V30 23 C 16.4523 7.9829 16.3596 0
M  V30 24 C 17.5057 9.7362 18.3251 0
M  V30 25 C 21.7551 17.9305 9.1703 0
M  V30 26 C 21.3940 16.6763 7.0327 0
M  V30 27 H 20.3472 13.5057 6.3125 0
M  V30 28 C 21.0428 15.5475 6.2690 0
M  V30 29 H 16.0548 7.3215 15.6046 0
M  V30 30 C 16.3392 7.6599 17.7148 0
M  V30 31 C 18.0228 10.5882 19.5121 0
M  V30 32 C 16.8612 8.5215 18.6969 0
M  V30 33 H 21.7142 17.8844 10.2605 0
M  V30 34 C 20.8426 19.0062 8.5352 0
M  V30 35 C 23.1580 18.2323 8.5897 0
M  V30 36 C 21.8591 18.0439 6.4777 0
M  V30 37 Br 21.1281 15.5942 4.3674 0
M  V30 38 Br 15.4719 6.0359 18.2017 0
M  V30 39 H 18.5106 11.5213 19.2237 0
M  V30 40 C 16.7808 10.7631 20.4211 0
M  V30 41 C 18.9202 9.6103 20.3081 0
M  V30 42 C 16.8158 8.2829 20.2211 0
M  V30 43 C 20.8942 19.0714 7.1132 0
M  V30 44 C 19.9859 19.8829 9.1951 0
M  V30 45 C 23.2161 18.3047 7.1687 0
M  V30 46 C 24.3417 18.4235 9.2968 0
M  V30 47 H 21.8997 18.0883 5.3906 0
M  V30 48 C 16.1379 9.5474 20.7937 0
M  V30 49 C 16.2497 11.9537 20.9133 0
M  V30 50 C 20.2426 9.8033 20.7012 0
M  V30 51 C 18.2889 8.3879 20.6786 0
M  V30 52 H 16.3299 7.3522 20.5089 0
M  V30 53 C 20.1033 20.0027 6.4153 0
M  V30 54 C 19.2145 20.7790 8.4953 0
M  V30 55 O 19.7621 20.0009 10.5324 0
M  V30 56 C 24.4328 18.5842 6.5195 0
M  V30 57 C 25.5215 18.6919 8.6458 0
M  V30 58 O 24.5407 18.3632 10.6405 0
M  V30 59 C 14.9992 9.5666 21.6196 0
M  V30 60 C 15.1413 11.9498 21.7265 0
M  V30 61 O 16.6914 13.2269 20.7161 0
M  V30 62 O 21.0419 10.8858 20.4905 0
M  V30 63 C 20.9148 8.8395 21.4143 0
M  V30 64 C 18.9975 7.4117 21.4027 0
M  V30 65 Br 20.1648 20.1020 4.5147 0
M  V30 66 C 19.2518 20.8684 7.1096 0
M  V30 67 O 18.4478 21.5129 9.3365 0
M  V30 68 B 18.7645 20.9768 10.5795 0
M  V30 69 Br 24.5221 18.6900 4.6203 0
M  V30 70 C 25.6011 18.7847 7.2621 0
M  V30 71 O 26.5392 18.8280 9.5299 0
M  V30 72 B 25.9158 18.5748 10.7491 0
M  V30 73 C 14.4905 10.7794 22.0934 0
M  V30 74 Br 14.1290 7.9481 22.1191 0
M  V30 75 O 14.8129 13.2085 22.1005 0
M  V30 76 B 15.8192 13.9678 21.5180 0
M  V30 77 B 22.2052 10.5305 21.1780 0
M  V30 78 C 20.3266 7.6344 21.7755 0
M  V30 79 O 22.1747 9.2433 21.7003 0
M  V30 80 Br 18.1669 5.7713 21.8982 0
M  V30 81 H 18.6390 21.5790 6.5759 0
M  V30 82 C 18.1792 21.5691 11.9274 0
M  V30 83 H 26.5359 18.9946 6.7648 0
M  V30 84 C 26.7575 18.4499 12.0895 0
M  V30 85 H 13.6211 10.7965 22.7331 0
M  V30 86 C 15.8628 15.5459 21.6510 0
M  V30 87 C 23.4874 11.4567 21.2855 0
M  V30 88 H 20.8707 6.8894 22.3362 0
M  V30 89 C 16.8782 22.0809 11.9518 0
M  V30 90 C 18.9327 21.5806 13.1086 0
M  V30 91 C 26.2269 17.8701 13.2489 0
M  V30 92 C 28.0890 18.8824 12.1038 0
M  V30 93 C 15.4625 16.1477 22.8479 0
M  V30 94 C 16.3069 16.3595 20.6006 0
M  V30 95 C 24.3128 11.3641 22.4103 0
M  V30 96 C 23.8086 12.3864 20.2873 0
M  V30 97 F 16.1012 22.0237 10.8449 0
M  V30 98 C 16.3629 22.6555 13.1149 0
M  V30 99 C 18.4177 22.1571 14.2723 0
M  V30 100 H 19.9317 21.1635 13.1184 0
M  V30 101 F 24.9505 17.4220 13.2657 0
M  V30 102 C 27.0158 17.7264 14.3976 0
M  V30 103 H 28.5293 19.3219 11.2177 0
M  V30 104 C 28.8722 18.7396 13.2448 0
M  V30 105 C 15.4416 17.5378 22.9726 0
M  V30 106 F 15.0913 15.3858 23.9033 0
M  V30 107 C 16.2833 17.7511 20.7243 0
M  V30 108 H 16.6482 15.9130 19.6753 0
M  V30 109 F 23.9958 10.5245 23.4236 0
M  V30 110 C 25.4708 12.1367 22.5081 0
M  V30 111 H 23.1678 12.4961 19.4215 0
M  V30 112 C 24.9692 13.1594 20.3844 0
M  V30 113 F 15.0993 23.1402 13.1054 0
M  V30 114 C 17.1392 22.7306 14.2761 0
M  V30 115 H 19.0259 22.1807 15.1676 0
M  V30 116 F 26.4862 17.1393 15.4957 0
M  V30 117 C 28.3456 18.1627 14.4059 0
M  V30 118 H 29.9022 19.0725 13.2200 0
M  V30 119 C 15.8195 18.3546 21.9015 0
M  V30 120 F 15.0506 18.0856 24.1469 0
M  V30 121 H 16.6059 18.3634 19.8916 0
M  V30 122 C 25.8288 13.0181 21.4823 0
M  V30 123 F 26.2426 12.0228 23.6142 0
M  V30 124 H 25.2122 13.8560 19.5920 0
M  V30 125 B 16.5605 23.4537 15.5625 0
M  V30 126 B 29.2796 17.9666 15.6724 0
M  V30 127 B 15.7240 19.9324 22.0393 0
M  V30 128 B 27.1806 13.8414 21.5917 0
M  V30 129 O 17.0291 23.2190 16.8591 0
M  V30 130 O 15.7247 24.5593 15.4644 0
M  V30 131 O 28.8235 17.8629 16.9866 0
M  V30 132 O 30.6654 18.0480 15.5661 0
M  V30 133 O 16.4096 20.8212 21.2060 0
M  V30 134 O 14.7641 20.5465 22.8358 0
M  V30 135 O 27.4112 15.0580 20.9422 0
M  V30 136 O 28.2964 13.3414 22.2513 0
M  V30 137 C 16.4053 24.1958 17.5739 0
M  V30 138 C 15.6448 24.9864 16.7460 0
M  V30 139 C 29.9815 17.8758 17.6991 0
M  V30 140 C 31.0637 17.9862 16.8598 0
M  V30 141 C 15.8716 22.0218 21.5557 0
M  V30 142 C 14.8985 21.8539 22.5108 0
M  V30 143 C 28.6943 15.3393 21.3039 0
M  V30 144 C 29.2096 14.3240 22.0741 0
M  V30 145 C 16.4696 24.4466 18.9429 0
M  V30 146 C 14.9142 26.0701 17.2150 0
M  V30 147 C 30.1462 17.8097 19.0796 0
M  V30 148 C 32.3683 18.0358 17.3344 0
M  V30 149 C 16.1864 23.2882 21.0687 0
M  V30 150 C 14.1772 22.9195 23.0335 0
M  V30 151 C 29.4594 16.4634 20.9976 0
M  V30 152 C 30.5014 14.3550 22.5820 0
M  V30 153 C 17.2575 23.6496 20.0120 0
M  V30 154 C 15.7324 25.5562 19.4481 0
M  V30 155 C 14.9638 26.3556 18.5825 0
M  V30 156 H 14.3239 26.6808 16.5486 0
M  V30 157 C 29.0373 17.6912 20.1528 0
M  V30 158 C 31.4733 17.8689 19.5926 0
M  V30 159 C 32.5699 17.9775 18.7175 0
M  V30 160 H 33.2086 18.1238 16.6625 0
M  V30 161 C 15.4573 24.3981 21.5845 0
M  V30 162 C 14.4622 24.2041 22.5601 0
M  V30 163 H 13.4147 22.7682 23.7826 0
M  V30 164 C 30.7858 16.5228 21.5148 0
M  V30 165 H 30.8878 13.5472 23.1850 0
M  V30 166 C 31.2943 15.4703 22.2974 0
M  V30 167 H 17.8185 22.7976 19.6229 0
M  V30 168 C 18.1219 24.7225 20.7180 0
M  V30 169 C 15.8739 25.7557 20.9732 0
M  V30 170 Br 13.9737 27.8402 19.2474 0
M  V30 171 H 28.0218 17.6419 19.7547 0
M  V30 172 C 29.3064 18.8953 21.0863 0
M  V30 173 C 31.5460 17.8127 21.1355 0
M  V30 174 Br 34.3495 18.0552 19.3904 0
M  V30 175 Br 13.4823 25.6796 23.2593 0
M  V30 176 Br 33.0668 15.5381 22.9903 0
M  V30 177 C 17.3974 25.8434 21.2151 0
M  V30 178 C 19.4989 24.6994 20.9224 0
M  V30 179 H 15.3152 26.6053 21.3623 0
M  V30 180 C 30.6276 18.9613 21.6137 0
M  V30 181 C 28.4129 19.8996 21.4466 0
M  V30 182 H 32.5586 17.8633 21.5320 0
M  V30 183 C 18.0702 26.8954 21.8636 0
M  V30 184 C 20.1382 25.7343 21.5610 0
M  V30 185 O 20.3868 23.7263 20.5844 0
M  V30 186 C 30.9952 20.0074 22.4801 0
M  V30 187 O 27.1217 20.0611 21.0518 0
M  V30 188 C 28.7903 20.9151 22.2912 0
M  V30 189 Br 17.1139 28.4035 22.5248 0
M  V30 190 C 19.4572 26.8472 22.0372 0
M  V30 191 O 21.4674 25.4920 21.6581 0
M  V30 192 B 21.5889 24.2276 21.0874 0
M  V30 193 Br 32.7572 20.1062 23.1954 0
M  V30 194 C 30.0693 20.9971 22.8274 0
M  V30 195 B 26.7498 21.2321 21.7124 0
M  V30 196 O 27.7664 21.7800 22.4908 0
M  V30 197 H 19.9738 27.6513 22.5389 0
M  V30 198 C 22.9470 23.4096 21.1972 0
M  V30 199 H 30.3516 21.8021 23.4889 0
M  V30 200 C 25.3789 22.0017 21.4922 0
M  V30 201 C 23.0510 22.0738 20.7877 0
M  V30 202 C 24.0740 24.0307 21.7490 0
M  V30 203 C 24.2566 21.3749 20.9370 0
M  V30 204 C 25.2705 23.3371 21.8965 0
M  V30 205 F 21.9831 21.4379 20.2534 0
M  V30 206 H 24.0233 25.0604 22.0799 0
M  V30 207 F 24.3212 20.0794 20.5522 0
M  V30 208 H 26.1194 23.8448 22.3368 0
M  V30 END ATOM
M  V30 BEGIN BOND
M  V30 0 1 2 1
M  V30 1 1 3 1
M  V30 2 1 4 1
M  V30 3 1 5 2
M  V30 4 1 6 2
M  V30 5 1 7 4
M  V30 6 1 8 4
M  V30 7 1 9 5
M  V30 8 1 10 7
M  V30 9 1 10 5
M  V30 10 1 11 7
M  V30 11 1 12 8
M  V30 12 1 13 8
M  V30 13 1 14 9
M  V30 14 1 15 9
M  V30 15 1 16 10
M  V30 16 1 17 12
M  V30 17 1 18 17
M  V30 18 1 18 13
M  V30 19 1 19 14
M  V30 20 1 20 19
M  V30 21 1 20 15
M  V30 22 1 21 17
M  V30 23 1 22 18
M  V30 24 1 23 19
M  V30 25 1 24 20
M  V30 26 1 25 21
M  V30 27 1 26 21
M  V30 28 1 27 22
M  V30 29 1 28 22
M  V30 30 1 28 26
M  V30 31 1 29 23
M  V30 32 1 30 23
M  V30 33 1 31 24
M  V30 34 1 32 30
M  V30 35 1 32 24
M  V30 36 1 33 25
M  V30 37 1 34 25
M  V30 38 1 35 25
M  V30 39 1 36 26
M  V30 40 1 37 28
M  V30 41 1 38 30
M  V30 42 1 39 31
M  V30 43 1 40 31
M  V30 44 1 41 31
M  V30 45 1 42 32
M  V30 46 1 43 34
M  V30 47 1 43 36
M  V30 48 1 44 34
M  V30 49 1 45 36
M  V30 50 1 45 35
M  V30 51 1 46 35
M  V30 52 1 47 36
M  V30 53 1 48 42
M  V30 54 1 48 40
M  V30 55 1 49 40
M  V30 56 1 50 41
M  V30 57 1 51 42
M  V30 58 1 51 41
M  V30 59 1 52 42
M  V30 60 1 53 43
M  V30 61 1 54 44
M  V30 62 1 55 44
M  V30 63 1 56 45
M  V30 64 1 57 46
M  V30 65 1 58 46
M  V30 66 1 59 48
M  V30 67 1 60 49
M  V30 68 1 61 49
M  V30 69 1 62 50
M  V30 70 1 63 50
M  V30 71 1 64 51
M  V30 72 1 65 53
M  V30 73 1 66 54
M  V30 74 1 66 53
M  V30 75 1 67 54
M  V30 76 1 68 67
M  V30 77 1 68 55
M  V30 78 1 69 56
M  V30 79 1 70 57
M  V30 80 1 70 56
M  V30 81 1 71 57
M  V30 82 1 72 71
M  V30 83 1 72 58
M  V30 84 1 73 59
M  V30 85 1 73 60
M  V30 86 1 74 59
M  V30 87 1 75 60
M  V30 88 1 76 75
M  V30 89 1 76 61
M  V30 90 1 77 62
M  V30 91 1 78 64
M  V30 92 1 78 63
M  V30 93 1 79 63
M  V30 94 1 79 77
M  V30 95 1 80 64
M  V30 96 1 81 66
M  V30 97 1 82 68
M  V30 98 1 83 70
M  V30 99 1 84 72
M  V30 100 1 85 73
M  V30 101 1 86 76
M  V30 102 1 87 77
M  V30 103 1 88 78
M  V30 104 1 89 82
M  V30 105 1 90 82
M  V30 106 1 91 84
M  V30 107 1 92 84
M  V30 108 1 93 86
M  V30 109 1 94 86
M  V30 110 1 95 87
M  V30 111 1 96 87
M  V30 112 1 97 89
M  V30 113 1 98 89
M  V30 114 1 99 90
M  V30 115 1 100 90
M  V30 116 1 101 91
M  V30 117 1 102 91
M  V30 118 1 103 92
M  V30 119 1 104 92
M  V30 120 1 105 93
M  V30 121 1 106 93
M  V30 122 1 107 94
M  V30 123 1 108 94
M  V30 124 1 109 95
M  V30 125 1 110 95
M  V30 126 1 111 96
M  V30 127 1 112 96
M  V30 128 1 113 98
M  V30 129 1 114 98
M  V30 130 1 114 99
M  V30 131 1 115 99
M  V30 132 1 116 102
M  V30 133 1 117 102
M  V30 134 1 117 104
M  V30 135 1 118 104
M  V30 136 1 119 105
M  V30 137 1 119 107
M  V30 138 1 120 105
M  V30 139 1 121 107
M  V30 140 1 122 112
M  V30 141 1 122 110
M  V30 142 1 123 110
M  V30 143 1 124 112
M  V30 144 1 125 114
M  V30 145 1 126 117
M  V30 146 1 127 119
M  V30 147 1 128 122
M  V30 148 1 129 125
M  V30 149 1 130 125
M  V30 150 1 131 126
M  V30 151 1 132 126
M  V30 152 1 133 127
M  V30 153 1 134 127
M  V30 154 1 135 128
M  V30 155 1 136 128
M  V30 156 1 137 129
M  V30 157 1 138 130
M  V30 158 1 138 137
M  V30 159 1 139 131
M  V30 160 1 140 132
M  V30 161 1 140 139
M  V30 162 1 141 133
M  V30 163 1 142 134
M  V30 164 1 142 141
M  V30 165 1 143 135
M  V30 166 1 144 143
M  V30 167 1 144 136
M  V30 168 1 145 137
M  V30 169 1 146 138
M  V30 170 1 147 139
M  V30 171 1 148 140
M  V30 172 1 149 141
M  V30 173 1 150 142
M  V30 174 1 151 143
M  V30 175 1 152 144
M  V30 176 1 153 149
M  V30 177 1 153 145
M  V30 178 1 154 145
M  V30 179 1 155 154
M  V30 180 1 155 146
M  V30 181 1 156 146
M  V30 182 1 157 151
M  V30 183 1 157 147
M  V30 184 1 158 147
M  V30 185 1 159 158
M  V30 186 1 159 148
M  V30 187 1 160 148
M  V30 188 1 161 149
M  V30 189 1 162 161
M  V30 190 1 162 150
M  V30 191 1 163 150
M  V30 192 1 164 151
M  V30 193 1 165 152
M  V30 194 1 166 152
M  V30 195 1 166 164
M  V30 196 1 167 153
M  V30 197 1 168 153
M  V30 198 1 169 161
M  V30 199 1 169 154
M  V30 200 1 170 155
M  V30 201 1 171 157
M  V30 202 1 172 157
M  V30 203 1 173 164
M  V30 204 1 173 158
M  V30 205 1 174 159
M  V30 206 1 175 162
M  V30 207 1 176 166
M  V30 208 1 177 169
M  V30 209 1 177 168
M  V30 210 1 178 168
M  V30 211 1 179 169
M  V30 212 1 180 173
M  V30 213 1 180 172
M  V30 214 1 181 172
M  V30 215 1 182 173
M  V30 216 1 183 177
M  V30 217 1 184 178
M  V30 218 1 185 178
M  V30 219 1 186 180
M  V30 220 1 187 181
M  V30 221 1 188 181
M  V30 222 1 189 183
M  V30 223 1 190 184
M  V30 224 1 190 183
M  V30 225 1 191 184
M  V30 226 1 192 191
M  V30 227 1 192 185
M  V30 228 1 193 186
M  V30 229 1 194 188
M  V30 230 1 194 186
M  V30 231 1 195 187
M  V30 232 1 196 195
M  V30 233 1 196 188
M  V30 234 1 197 190
M  V30 235 1 198 192
M  V30 236 1 199 194
M  V30 237 1 200 195
M  V30 238 1 201 198
M  V30 239 1 202 198
M  V30 240 1 203 200
M  V30 241 1 203 201
M  V30 242 1 204 200
M  V30 243 1 204 202
M  V30 244 1 205 201
M  V30 245 1 206 202
M  V30 246 1 207 203
M  V30 247 1 208 204
M  V30 END BOND
M  V30 END CTAB
M  END

$$$$
