
     RDKit          3D

  0  0  0  0  0  0  0  0  0  0999 V3000
M  V30 BEGIN CTAB
M  V30 COUNTS 135 140 0 0 0
M  V30 BEGIN ATOM
M  V30 1 C 0.8553 3.5712 8.1580 0
M  V30 2 C 1.6145 2.4270 7.8974 0
M  V30 3 C -0.3094 3.8527 7.4291 0
M  V30 4 H 1.1653 4.2054 8.9731 0
M  V30 5 C 1.2532 1.5618 6.8544 0
M  V30 6 C 2.8129 2.1267 8.7922 0
M  V30 7 C -0.6788 2.9796 6.3943 0
M  V30 8 O -1.1304 4.9361 7.6909 0
M  V30 9 C 0.1128 1.8661 6.0978 0
M  V30 10 O 2.0334 0.4379 6.6440 0
M  V30 11 C 2.3770 1.4656 10.0957 0
M  V30 12 H 3.3624 3.0462 8.9963 0
M  V30 13 H 3.5257 1.4856 8.2725 0
M  V30 14 C -1.9547 3.2001 5.5861 0
M  V30 15 C -0.8043 5.8260 8.7508 0
M  V30 16 H -0.2064 1.2202 5.2956 0
M  V30 17 C 1.6514 -0.5088 5.6553 0
M  V30 18 C 2.2002 2.2167 11.2669 0
M  V30 19 C 2.1235 0.0916 10.0962 0
M  V30 20 C -3.0715 2.2559 6.0226 0
M  V30 21 H -1.7404 3.0730 4.5245 0
M  V30 22 H -2.2932 4.2324 5.6777 0
M  V30 23 H 0.1430 6.3294 8.5488 0
M  V30 24 H -0.7098 5.2897 9.6964 0
M  V30 25 C -1.9336 6.8507 8.8564 0
M  V30 26 H 1.7167 -0.0673 4.6591 0
M  V30 27 H 0.6256 -0.8446 5.8133 0
M  V30 28 C 2.5990 -1.7028 5.7707 0
M  V30 29 O 2.4582 3.5756 11.2082 0
M  V30 30 C 1.7472 1.5616 12.4214 0
M  V30 31 H 2.2752 -0.4553 9.1790 0
M  V30 32 C 1.6321 -0.5544 11.2387 0
M  V30 33 C -3.8236 2.5903 7.1519 0
M  V30 34 C -3.3384 1.0699 5.3216 0
M  V30 35 H -2.0414 7.4055 7.9242 0
M  V30 36 H -1.7410 7.5664 9.6550 0
M  V30 37 H -2.8843 6.3594 9.0640 0
M  V30 38 H 2.5359 -2.1529 6.7615 0
M  V30 39 H 3.6321 -1.3940 5.6098 0
M  V30 40 H 2.3568 -2.4689 5.0348 0
M  V30 41 C 2.2448 4.3858 12.3559 0
M  V30 42 C 1.4387 0.1971 12.4076 0
M  V30 43 H 1.5741 2.1135 13.3302 0
M  V30 44 O 1.3172 -1.9007 11.2690 0
M  V30 45 H -3.5958 3.5154 7.6578 0
M  V30 46 C -4.8158 1.7304 7.6437 0
M  V30 47 O -2.5596 0.7860 4.2108 0
M  V30 48 C -4.3481 0.2228 5.8012 0
M  V30 49 H 2.9130 4.0856 13.1653 0
M  V30 50 H 1.2166 4.2974 12.7103 0
M  V30 51 C 2.5223 5.8340 11.9523 0
M  V30 52 C 0.8494 -0.4456 13.6643 0
M  V30 53 C 1.1059 -2.5891 10.0426 0
M  V30 54 O -5.5598 1.9979 8.7788 0
M  V30 55 C -5.0672 0.5316 6.9602 0
M  V30 56 C -2.8447 -0.3356 3.3789 0
M  V30 57 H -4.5543 -0.7147 5.3131 0
M  V30 58 H 1.8558 6.1465 11.1485 0
M  V30 59 H 3.5473 5.9478 11.5990 0
M  V30 60 H 2.3779 6.5107 12.7940 0
M  V30 61 C -0.5726 -0.9818 13.4880 0
M  V30 62 H 0.8298 0.2674 14.4889 0
M  V30 63 H 1.5272 -1.2400 13.9778 0
M  V30 64 C 0.3453 -3.8769 10.3607 0
M  V30 65 H 2.0619 -2.8142 9.5671 0
M  V30 66 H 0.5139 -1.9900 9.3470 0
M  V30 67 C -5.1309 3.0209 9.6676 0
M  V30 68 C -6.1015 -0.4664 7.4838 0
M  V30 69 H -2.9409 -1.2566 3.9552 0
M  V30 70 H -1.9767 -0.4854 2.7361 0
M  V30 71 C -4.0753 -0.0762 2.4984 0
M  V30 72 C -1.6216 -0.1284 13.1148 0
M  V30 73 C -0.8152 -2.3483 13.6691 0
M  V30 74 H -0.6124 -3.6514 10.8316 0
M  V30 75 H 0.9141 -4.5037 11.0469 0
M  V30 76 H 0.1496 -4.4526 9.4568 0
M  V30 77 H -5.3496 4.0036 9.2466 0
M  V30 78 H -4.0564 2.9606 9.8499 0
M  V30 79 C -5.8713 2.8229 10.9903 0
M  V30 80 H -7.0601 0.0494 7.5463 0
M  V30 81 H -6.2504 -1.2784 6.7716 0
M  V30 82 C -5.7310 -1.0931 8.8285 0
M  V30 83 H -4.2508 -0.9090 1.8181 0
M  V30 84 H -3.9340 0.8228 1.8985 0
M  V30 85 H -4.9778 0.0645 3.0918 0
M  V30 86 O -1.3521 1.2183 12.9490 0
M  V30 87 C -2.8947 -0.6762 12.9190 0
M  V30 88 C -2.0862 -2.9009 13.4447 0
M  V30 89 H 0.0139 -2.9794 13.9425 0
M  V30 90 H -5.5817 3.5776 11.7206 0
M  V30 91 H -5.6487 1.8419 11.4120 0
M  V30 92 H -6.9493 2.8870 10.8444 0
M  V30 93 C -6.5358 -0.8439 9.9459 0
M  V30 94 C -4.5805 -1.8853 8.9556 0
M  V30 95 C -2.2426 2.0035 12.1632 0
M  V30 96 C -3.1295 -2.0479 13.0548 0
M  V30 97 H -3.7193 -0.0449 12.6276 0
M  V30 98 O -2.3638 -4.2512 13.5633 0
M  V30 99 H -7.4066 -0.2227 9.8168 0
M  V30 100 C -6.1911 -1.3316 11.2163 0
M  V30 101 O -3.8211 -2.1263 7.8249 0
M  V30 102 C -4.2485 -2.3886 10.2192 0
M  V30 103 C -1.5309 3.3049 11.7956 0
M  V30 104 H -3.1534 2.2164 12.7252 0
M  V30 105 H -2.5242 1.4809 11.2458 0
M  V30 106 C -4.5216 -2.5839 12.7074 0
M  V30 107 C -1.3287 -5.1565 13.9234 0
M  V30 108 O -6.9259 -1.0732 12.3596 0
M  V30 109 C -5.0232 -2.0977 11.3455 0
M  V30 110 C -2.4820 -2.5818 7.9766 0
M  V30 111 H -3.3616 -2.9872 10.3544 0
M  V30 112 H -2.1794 3.9529 11.2076 0
M  V30 113 H -1.2270 3.8475 12.6900 0
M  V30 114 H -0.6380 3.0988 11.2042 0
M  V30 115 H -4.5335 -3.6736 12.6879 0
M  V30 116 H -5.2002 -2.3047 13.5132 0
M  V30 117 C -1.9315 -6.5610 13.9501 0
M  V30 118 H -0.9246 -4.9070 14.9064 0
M  V30 119 H -0.5139 -5.1190 13.1978 0
M  V30 120 C -8.1225 -0.3106 12.2739 0
M  V30 121 H -2.4700 -3.6285 8.2851 0
M  V30 122 H -1.9522 -1.9975 8.7325 0
M  V30 123 C -1.7767 -2.4164 6.6312 0
M  V30 124 H -2.3355 -6.8279 12.9735 0
M  V30 125 H -1.1829 -7.3050 14.2212 0
M  V30 126 H -2.7442 -6.6199 14.6742 0
M  V30 127 H -8.8394 -0.7931 11.6068 0
M  V30 128 H -7.9163 0.6896 11.8893 0
M  V30 129 C -8.7089 -0.2113 13.6822 0
M  V30 130 H -1.7665 -1.3673 6.3332 0
M  V30 131 H -2.2871 -2.9822 5.8525 0
M  V30 132 H -0.7454 -2.7631 6.6854 0
M  V30 133 H -9.6328 0.3662 13.6836 0
M  V30 134 H -8.9288 -1.2018 14.0809 0
M  V30 135 H -8.0064 0.2724 14.3609 0
M  V30 END ATOM
M  V30 BEGIN BOND
M  V30 0 1 2 1
M  V30 1 1 3 1
M  V30 2 1 4 1
M  V30 3 1 5 2
M  V30 4 1 6 2
M  V30 5 1 7 3
M  V30 6 1 8 3
M  V30 7 1 9 7
M  V30 8 1 9 5
M  V30 9 1 10 5
M  V30 10 1 11 6
M  V30 11 1 12 6
M  V30 12 1 13 6
M  V30 13 1 14 7
M  V30 14 1 15 8
M  V30 15 1 16 9
M  V30 16 1 17 10
M  V30 17 1 18 11
M  V30 18 1 19 11
M  V30 19 1 20 14
M  V30 20 1 21 14
M  V30 21 1 22 14
M  V30 22 1 23 15
M  V30 23 1 24 15
M  V30 24 1 25 15
M  V30 25 1 26 17
M  V30 26 1 27 17
M  V30 27 1 28 17
M  V30 28 1 29 18
M  V30 29 1 30 18
M  V30 30 1 31 19
M  V30 31 1 32 19
M  V30 32 1 33 20
M  V30 33 1 34 20
M  V30 34 1 35 25
M  V30 35 1 36 25
M  V30 36 1 37 25
M  V30 37 1 38 28
M  V30 38 1 39 28
M  V30 39 1 40 28
M  V30 40 1 41 29
M  V30 41 1 42 32
M  V30 42 1 42 30
M  V30 43 1 43 30
M  V30 44 1 44 32
M  V30 45 1 45 33
M  V30 46 1 46 33
M  V30 47 1 47 34
M  V30 48 1 48 34
M  V30 49 1 49 41
M  V30 50 1 50 41
M  V30 51 1 51 41
M  V30 52 1 52 42
M  V30 53 1 53 44
M  V30 54 1 54 46
M  V30 55 1 55 48
M  V30 56 1 55 46
M  V30 57 1 56 47
M  V30 58 1 57 48
M  V30 59 1 58 51
M  V30 60 1 59 51
M  V30 61 1 60 51
M  V30 62 1 61 52
M  V30 63 1 62 52
M  V30 64 1 63 52
M  V30 65 1 64 53
M  V30 66 1 65 53
M  V30 67 1 66 53
M  V30 68 1 67 54
M  V30 69 1 68 55
M  V30 70 1 69 56
M  V30 71 1 70 56
M  V30 72 1 71 56
M  V30 73 1 72 61
M  V30 74 1 73 61
M  V30 75 1 74 64
M  V30 76 1 75 64
M  V30 77 1 76 64
M  V30 78 1 77 67
M  V30 79 1 78 67
M  V30 80 1 79 67
M  V30 81 1 80 68
M  V30 82 1 81 68
M  V30 83 1 82 68
M  V30 84 1 83 71
M  V30 85 1 84 71
M  V30 86 1 85 71
M  V30 87 1 86 72
M  V30 88 1 87 72
M  V30 89 1 88 73
M  V30 90 1 89 73
M  V30 91 1 90 79
M  V30 92 1 91 79
M  V30 93 1 92 79
M  V30 94 1 93 82
M  V30 95 1 94 82
M  V30 96 1 95 86
M  V30 97 1 96 88
M  V30 98 1 96 87
M  V30 99 1 97 87
M  V30 100 1 98 88
M  V30 101 1 99 93
M  V30 102 1 100 93
M  V30 103 1 101 94
M  V30 104 1 102 94
M  V30 105 1 103 95
M  V30 106 1 104 95
M  V30 107 1 105 95
M  V30 108 1 106 96
M  V30 109 1 107 98
M  V30 110 1 108 100
M  V30 111 1 109 100
M  V30 112 1 109 102
M  V30 113 1 109 106
M  V30 114 1 110 101
M  V30 115 1 111 102
M  V30 116 1 112 103
M  V30 117 1 113 103
M  V30 118 1 114 103
M  V30 119 1 115 106
M  V30 120 1 116 106
M  V30 121 1 117 107
M  V30 122 1 118 107
M  V30 123 1 119 107
M  V30 124 1 120 108
M  V30 125 1 121 110
M  V30 126 1 122 110
M  V30 127 1 123 110
M  V30 128 1 124 117
M  V30 129 1 125 117
M  V30 130 1 126 117
M  V30 131 1 127 120
M  V30 132 1 128 120
M  V30 133 1 129 120
M  V30 134 1 130 123
M  V30 135 1 131 123
M  V30 136 1 132 123
M  V30 137 1 133 129
M  V30 138 1 134 129
M  V30 139 1 135 129
M  V30 END BOND
M  V30 END CTAB
M  END

$$$$
