
     RDKit          3D

  0  0  0  0  0  0  0  0  0  0999 V3000
M  V30 BEGIN CTAB
M  V30 COUNTS 168 180 0 0 0
M  V30 BEGIN ATOM
M  V30 1 C 4.2340 11.0340 31.4740 0
M  V30 2 C 3.7690 12.3020 31.1290 0
M  V30 3 C 4.0290 10.5250 32.7440 0
M  V30 4 H 4.6870 10.5220 30.8420 0
M  V30 5 C 4.0040 12.9020 29.8040 0
M  V30 6 C 3.0920 13.0430 32.0820 0
M  V30 7 C 4.5330 9.1920 33.1090 0
M  V30 8 C 3.3380 11.2980 33.6810 0
M  V30 9 N 4.7050 12.4080 28.9090 0
M  V30 10 H 3.5930 13.7170 29.6230 0
M  V30 11 C 2.8680 12.5500 33.3660 0
M  V30 12 H 2.7770 13.8900 31.8580 0
M  V30 13 N 4.5630 8.7570 34.2840 0
M  V30 14 H 4.8460 8.6380 32.4270 0
M  V30 15 H 3.1930 10.9580 34.5350 0
M  V30 16 C 4.8980 13.2010 27.6880 0
M  V30 17 C 2.1520 13.3850 34.3400 0
M  V30 18 C 5.0830 7.4170 34.5420 0
M  V30 19 C 4.5500 12.3740 26.4740 0
M  V30 20 C 6.3480 13.6700 27.6100 0
M  V30 21 H 4.3110 13.9850 27.7180 0
M  V30 22 N 1.7590 14.5310 34.0830 0
M  V30 23 H 1.9880 13.0400 35.1860 0
M  V30 24 C 3.9720 6.5590 35.1060 0
M  V30 25 C 6.2500 7.5060 35.5120 0
M  V30 26 H 5.3950 7.0260 33.6990 0
M  V30 27 N 3.1230 12.0700 26.4950 0
M  V30 28 H 5.0630 11.5400 26.4870 0
M  V30 29 C 4.8530 13.1400 25.1960 0
M  V30 30 C 6.5830 14.4810 26.3630 0
M  V30 31 H 6.5560 14.2060 28.3910 0
M  V30 32 H 6.9360 12.8990 27.6070 0
M  V30 33 C 1.0820 15.3120 35.1060 0
M  V30 34 N 2.9570 6.3630 34.0830 0
M  V30 35 H 3.5720 7.0110 35.8770 0
M  V30 36 C 4.5030 5.1880 35.5380 0
M  V30 37 C 6.7550 6.1370 35.9200 0
M  V30 38 H 6.9730 8.0020 35.0990 0
M  V30 39 H 5.9710 7.9930 36.3010 0
M  V30 40 C 2.7600 10.8910 26.5850 0
M  V30 41 H 4.2470 13.8930 25.1220 0
M  V30 42 H 4.7010 12.5610 24.4310 0
M  V30 43 C 6.2910 13.6500 25.1570 0
M  V30 44 H 7.5050 14.7810 26.3360 0
M  V30 45 H 6.0090 15.2630 26.3700 0
M  V30 46 C -0.2170 15.8460 34.5420 0
M  V30 47 H 0.8910 14.7400 35.8770 0
M  V30 48 C 2.0030 16.4580 35.5380 0
M  V30 49 C 1.7680 6.5960 34.3400 0
M  V30 50 H 3.7850 4.6800 35.9470 0
M  V30 51 H 4.8040 4.7020 34.7560 0
M  V30 52 C 5.6500 5.3110 36.5200 0
M  V30 53 H 7.1140 5.6790 35.1450 0
M  V30 54 H 7.4710 6.2370 36.5680 0
M  V30 55 C 1.3360 10.4850 26.5990 0
M  V30 56 H 3.4110 10.2290 26.6430 0
M  V30 57 H 6.9020 12.8970 25.1280 0
M  V30 58 H 6.4250 14.1810 24.3550 0
M  V30 59 N -1.1170 14.7250 34.2840 0
M  V30 60 C -0.8770 16.8110 35.5120 0
M  V30 61 H -0.0340 16.3110 33.6990 0
M  V30 62 H 2.8020 16.0900 35.9470 0
M  V30 63 H 2.2740 16.9610 34.7560 0
M  V30 64 C 1.3240 17.3900 36.5200 0
M  V30 65 C 0.6870 6.3930 33.3660 0
M  V30 66 H 1.5510 6.9110 35.1860 0
M  V30 67 H 5.3360 5.7300 37.3340 0
M  V30 68 H 5.9860 4.4290 36.7420 0
M  V30 69 C 1.0040 9.1480 26.5950 0
M  V30 70 C 0.3230 11.4470 26.5950 0
M  V30 71 C -1.4790 14.4820 33.1090 0
M  V30 72 C 0.0560 17.9340 35.9200 0
M  V30 73 H -1.6680 17.1900 35.0990 0
M  V30 74 H -1.1590 16.3260 36.3010 0
M  V30 75 H 1.1170 16.9080 37.3340 0
M  V30 76 H 1.9190 18.1220 36.7420 0
M  V30 77 C 1.0020 5.9530 32.0820 0
M  V30 78 C -0.6330 6.6120 33.6810 0
M  V30 79 C -0.3360 8.7520 26.5990 0
M  V30 80 H 1.6750 8.5050 26.5910 0
M  V30 81 C -1.0000 11.0670 26.5990 0
M  V30 82 H 0.5450 12.3500 26.5910 0
M  V30 83 C -2.3810 13.3790 32.7440 0
M  V30 84 H -1.1560 15.0290 32.4270 0
M  V30 85 H 0.2730 18.4730 35.1450 0
M  V30 86 H -0.3880 18.5040 36.5680 0
M  V30 87 C 0.0210 5.7370 31.1290 0
M  V30 88 H 1.8920 5.8020 31.8580 0
M  V30 89 C -1.6480 6.4000 32.7440 0
M  V30 90 H -0.8550 6.9080 34.5350 0
M  V30 91 C -0.6960 7.3170 26.5850 0
M  V30 92 C -1.3270 9.7080 26.5950 0
M  V30 93 C -2.0640 12.0960 26.5850 0
M  V30 94 C -2.9240 13.3020 31.4740 0
M  V30 95 C -2.7050 12.3940 33.6810 0
M  V30 96 C 0.4230 5.2330 29.8040 0
M  V30 97 C -1.3100 5.9680 31.4740 0
M  V30 98 C -3.0540 6.6310 33.1090 0
M  V30 99 N 0.1430 6.4120 26.4950 0
M  V30 100 H -1.5950 7.0840 26.6430 0
M  V30 101 H -2.2200 9.4490 26.5910 0
M  V30 102 N -3.2660 11.8220 26.4950 0
M  V30 103 H -1.8160 12.9910 26.6430 0
M  V30 104 C -3.7900 12.2660 31.1290 0
M  V30 105 H -2.7080 13.9500 30.8420 0
M  V30 106 C -3.5550 11.3610 33.3660 0
M  V30 107 H -2.3380 12.4380 34.5350 0
M  V30 108 N -0.3550 4.8730 28.9090 0
M  V30 109 H 1.3350 5.1820 29.6230 0
M  V30 110 H -1.9800 5.8320 30.8420 0
M  V30 111 N -3.4460 6.8220 34.2840 0
M  V30 112 H -3.6900 6.6370 32.4270 0
M  V30 113 C -0.3070 5.0250 26.4740 0
M  V30 114 C -4.2430 12.9050 26.4740 0
M  V30 115 C -4.4270 12.1690 29.8040 0
M  V30 116 C -4.0930 11.3080 32.0820 0
M  V30 117 C -3.9200 10.3230 34.3400 0
M  V30 118 C 0.2350 4.3100 27.6880 0
M  V30 119 C -4.8670 7.0410 34.5420 0
M  V30 120 C 0.2050 4.3790 25.1960 0
M  V30 121 H -1.2860 4.9970 26.4870 0
M  V30 122 H -3.7770 13.7670 26.4870 0
M  V30 123 C -5.0580 12.7850 25.1960 0
M  V30 124 C -5.1330 12.7940 27.6880 0
M  V30 125 N -4.3500 13.0230 28.9090 0
M  V30 126 H -4.9280 11.4050 29.6230 0
M  V30 127 H -4.6700 10.6120 31.8580 0
M  V30 128 N -4.7160 9.4100 34.0830 0
M  V30 129 H -3.5390 10.3530 35.1860 0
M  V30 130 C -0.0830 2.8200 27.6100 0
M  V30 131 H 1.2080 4.4260 27.7180 0
M  V30 132 C -5.0540 8.4330 35.1060 0
M  V30 133 C -5.3720 5.9870 35.5120 0
M  V30 134 H -5.3610 6.9670 33.6990 0
M  V30 135 H 1.1600 4.5270 25.1220 0
M  V30 136 H -0.2200 4.8000 24.4310 0
M  V30 137 C -0.0720 2.8790 25.1570 0
M  V30 138 H -5.4070 11.8840 25.1220 0
M  V30 139 H -4.4810 12.9430 24.4310 0
M  V30 140 C -6.2190 13.7750 25.1570 0
M  V30 141 C -6.2640 13.8140 27.6100 0
M  V30 142 H -5.5190 11.8930 27.7180 0
M  V30 143 C 0.5010 2.2110 26.3630 0
M  V30 144 H 0.2770 2.3710 28.3910 0
M  V30 145 H -1.0450 2.6960 27.6070 0
M  V30 146 H -4.4620 8.5530 35.8770 0
M  V30 147 C -6.5070 8.6580 35.5380 0
M  V30 148 C -6.8110 6.2340 35.9200 0
M  V30 149 H -5.3050 5.1120 35.0990 0
M  V30 150 H -4.8110 5.9850 36.3010 0
M  V30 151 H -1.0300 2.7260 25.1280 0
M  V30 152 H 0.3200 2.4970 24.3550 0
M  V30 153 H -5.8730 14.6810 25.1280 0
M  V30 154 H -6.7460 13.6260 24.3550 0
M  V30 155 C -7.0840 13.6130 26.3630 0
M  V30 156 H -6.8330 13.7260 28.3910 0
M  V30 157 H -5.8910 14.7100 27.6070 0
M  V30 158 H 1.4650 2.3170 26.3700 0
M  V30 159 H 0.3000 1.2620 26.3360 0
M  V30 160 H -6.5870 9.5340 35.9470 0
M  V30 161 H -7.0780 8.6410 34.7560 0
M  V30 162 C -6.9740 7.6030 36.5200 0
M  V30 163 H -7.3870 6.1520 35.1450 0
M  V30 164 H -7.0820 5.5640 36.5680 0
M  V30 165 H -7.8050 14.2610 26.3360 0
M  V30 166 H -7.4740 12.7250 26.3700 0
M  V30 167 H -6.4530 7.6650 37.3340 0
M  V30 168 H -7.9060 7.7530 36.7420 0
M  V30 END ATOM
M  V30 BEGIN BOND
M  V30 0 1 2 1
M  V30 1 1 3 1
M  V30 2 1 4 1
M  V30 3 1 5 2
M  V30 4 1 6 2
M  V30 5 1 7 3
M  V30 6 1 8 3
M  V30 7 1 9 5
M  V30 8 1 10 5
M  V30 9 1 11 6
M  V30 10 1 11 8
M  V30 11 1 12 6
M  V30 12 1 13 7
M  V30 13 1 14 7
M  V30 14 1 15 8
M  V30 15 1 16 9
M  V30 16 1 17 11
M  V30 17 1 18 13
M  V30 18 1 19 16
M  V30 19 1 20 16
M  V30 20 1 21 16
M  V30 21 1 22 17
M  V30 22 1 23 17
M  V30 23 1 24 18
M  V30 24 1 25 18
M  V30 25 1 26 18
M  V30 26 1 27 19
M  V30 27 1 28 19
M  V30 28 1 29 19
M  V30 29 1 30 20
M  V30 30 1 31 20
M  V30 31 1 32 20
M  V30 32 1 33 22
M  V30 33 1 34 24
M  V30 34 1 35 24
M  V30 35 1 36 24
M  V30 36 1 37 25
M  V30 37 1 38 25
M  V30 38 1 39 25
M  V30 39 1 40 27
M  V30 40 1 41 29
M  V30 41 1 42 29
M  V30 42 1 43 29
M  V30 43 1 43 30
M  V30 44 1 44 30
M  V30 45 1 45 30
M  V30 46 1 46 33
M  V30 47 1 47 33
M  V30 48 1 48 33
M  V30 49 1 49 34
M  V30 50 1 50 36
M  V30 51 1 51 36
M  V30 52 1 52 36
M  V30 53 1 52 37
M  V30 54 1 53 37
M  V30 55 1 54 37
M  V30 56 1 55 40
M  V30 57 1 56 40
M  V30 58 1 57 43
M  V30 59 1 58 43
M  V30 60 1 59 46
M  V30 61 1 60 46
M  V30 62 1 61 46
M  V30 63 1 62 48
M  V30 64 1 63 48
M  V30 65 1 64 48
M  V30 66 1 65 49
M  V30 67 1 66 49
M  V30 68 1 67 52
M  V30 69 1 68 52
M  V30 70 1 69 55
M  V30 71 1 70 55
M  V30 72 1 71 59
M  V30 73 1 72 64
M  V30 74 1 72 60
M  V30 75 1 73 60
M  V30 76 1 74 60
M  V30 77 1 75 64
M  V30 78 1 76 64
M  V30 79 1 77 65
M  V30 80 1 78 65
M  V30 81 1 79 69
M  V30 82 1 80 69
M  V30 83 1 81 70
M  V30 84 1 82 70
M  V30 85 1 83 71
M  V30 86 1 84 71
M  V30 87 1 85 72
M  V30 88 1 86 72
M  V30 89 1 87 77
M  V30 90 1 88 77
M  V30 91 1 89 78
M  V30 92 1 90 78
M  V30 93 1 91 79
M  V30 94 1 92 79
M  V30 95 1 92 81
M  V30 96 1 93 81
M  V30 97 1 94 83
M  V30 98 1 95 83
M  V30 99 1 96 87
M  V30 100 1 97 87
M  V30 101 1 97 89
M  V30 102 1 98 89
M  V30 103 1 99 91
M  V30 104 1 100 91
M  V30 105 1 101 92
M  V30 106 1 102 93
M  V30 107 1 103 93
M  V30 108 1 104 94
M  V30 109 1 105 94
M  V30 110 1 106 95
M  V30 111 1 107 95
M  V30 112 1 108 96
M  V30 113 1 109 96
M  V30 114 1 110 97
M  V30 115 1 111 98
M  V30 116 1 112 98
M  V30 117 1 113 99
M  V30 118 1 114 102
M  V30 119 1 115 104
M  V30 120 1 116 104
M  V30 121 1 116 106
M  V30 122 1 117 106
M  V30 123 1 118 113
M  V30 124 1 118 108
M  V30 125 1 119 111
M  V30 126 1 120 113
M  V30 127 1 121 113
M  V30 128 1 122 114
M  V30 129 1 123 114
M  V30 130 1 124 114
M  V30 131 1 125 124
M  V30 132 1 125 115
M  V30 133 1 126 115
M  V30 134 1 127 116
M  V30 135 1 128 117
M  V30 136 1 129 117
M  V30 137 1 130 118
M  V30 138 1 131 118
M  V30 139 1 132 128
M  V30 140 1 132 119
M  V30 141 1 133 119
M  V30 142 1 134 119
M  V30 143 1 135 120
M  V30 144 1 136 120
M  V30 145 1 137 120
M  V30 146 1 138 123
M  V30 147 1 139 123
M  V30 148 1 140 123
M  V30 149 1 141 124
M  V30 150 1 142 124
M  V30 151 1 143 137
M  V30 152 1 143 130
M  V30 153 1 144 130
M  V30 154 1 145 130
M  V30 155 1 146 132
M  V30 156 1 147 132
M  V30 157 1 148 133
M  V30 158 1 149 133
M  V30 159 1 150 133
M  V30 160 1 151 137
M  V30 161 1 152 137
M  V30 162 1 153 140
M  V30 163 1 154 140
M  V30 164 1 155 140
M  V30 165 1 155 141
M  V30 166 1 156 141
M  V30 167 1 157 141
M  V30 168 1 158 143
M  V30 169 1 159 143
M  V30 170 1 160 147
M  V30 171 1 161 147
M  V30 172 1 162 148
M  V30 173 1 162 147
M  V30 174 1 163 148
M  V30 175 1 164 148
M  V30 176 1 165 155
M  V30 177 1 166 155
M  V30 178 1 167 162
M  V30 179 1 168 162
M  V30 END BOND
M  V30 END CTAB
M  END

$$$$
