
     RDKit          3D

  0  0  0  0  0  0  0  0  0  0999 V3000
M  V30 BEGIN CTAB
M  V30 COUNTS 168 180 0 0 0
M  V30 BEGIN ATOM
M  V30 1 C 4.3367 11.2205 31.5008 0
M  V30 2 C 3.8500 12.4684 31.0853 0
M  V30 3 C 4.0911 10.7257 32.7871 0
M  V30 4 H 4.9286 10.6365 30.8074 0
M  V30 5 C 4.1276 13.0113 29.7476 0
M  V30 6 C 3.0922 13.2196 31.9914 0
M  V30 7 C 4.6501 9.4248 33.1826 0
M  V30 8 C 3.3277 11.5085 33.6654 0
M  V30 9 N 4.9301 12.4707 28.9150 0
M  V30 10 H 3.5921 13.9293 29.5150 0
M  V30 11 C 2.8243 12.7592 33.2887 0
M  V30 12 H 2.7112 14.1887 31.6951 0
M  V30 13 N 4.6078 8.9672 34.3736 0
M  V30 14 H 5.1164 8.8702 32.3711 0
M  V30 15 H 3.1387 11.1349 34.6638 0
M  V30 16 C 5.1179 13.1334 27.6247 0
M  V30 17 C 2.0555 13.5532 34.2580 0
M  V30 18 C 5.2188 7.6618 34.6217 0
M  V30 19 C 4.6658 12.2030 26.4528 0
M  V30 20 C 6.6154 13.5064 27.5022 0
M  V30 21 H 4.5514 14.0672 27.5273 0
M  V30 22 N 1.6909 14.7598 34.0560 0
M  V30 23 H 1.8186 13.0291 35.1815 0
M  V30 24 C 4.1514 6.6374 35.1264 0
M  V30 25 C 6.3453 7.8611 35.6647 0
M  V30 26 H 5.6866 7.2229 33.7324 0
M  V30 27 N 3.2166 12.0068 26.4760 0
M  V30 28 H 5.2340 11.2702 26.5488 0
M  V30 29 C 5.0353 12.8098 25.0773 0
M  V30 30 C 6.9649 14.1046 26.1252 0
M  V30 31 H 6.8881 14.2124 28.2880 0
M  V30 32 H 7.2295 12.6193 27.6692 0
M  V30 33 C 0.9417 15.4298 35.1184 0
M  V30 34 N 3.1955 6.3199 34.0659 0
M  V30 35 H 3.6854 7.0752 36.0171 0
M  V30 36 C 4.8117 5.3112 35.5758 0
M  V30 37 C 6.9876 6.5301 36.1029 0
M  V30 38 H 7.1130 8.5227 35.2607 0
M  V30 39 H 5.9450 8.3681 36.5450 0
M  V30 40 C 2.7822 10.8171 26.6361 0
M  V30 41 H 4.4366 13.7050 24.8982 0
M  V30 42 H 4.7756 12.1108 24.2809 0
M  V30 43 C 6.5287 13.1782 24.9757 0
M  V30 44 H 8.0375 14.2950 26.0635 0
M  V30 45 H 6.4784 15.0755 26.0156 0
M  V30 46 C -0.4809 15.8412 34.6181 0
M  V30 47 H 0.7989 14.8083 36.0103 0
M  V30 48 C 1.7615 16.6654 35.5633 0
M  V30 49 C 1.9685 6.6086 34.2682 0
M  V30 50 H 4.0564 4.6418 35.9903 0
M  V30 51 H 5.2264 4.7950 34.7078 0
M  V30 52 C 5.9331 5.5301 36.6106 0
M  V30 53 H 7.5297 6.0931 35.2624 0
M  V30 54 H 7.7312 6.7138 36.8800 0
M  V30 55 C 1.3551 10.4655 26.6663 0
M  V30 56 H 3.4562 9.9718 26.7579 0
M  V30 57 H 7.1305 12.2679 24.9926 0
M  V30 58 H 6.7296 13.6560 24.0156 0
M  V30 59 N -1.3070 14.6590 34.3749 0
M  V30 60 C -1.2133 16.7189 35.6622 0
M  V30 61 H -0.3379 16.4643 33.7273 0
M  V30 62 H 2.7202 16.3465 35.9751 0
M  V30 63 H 1.9983 17.2815 34.6936 0
M  V30 64 C 1.0148 17.5286 36.5993 0
M  V30 65 C 0.8951 6.3366 33.3013 0
M  V30 66 H 1.6344 7.0794 35.1904 0
M  V30 67 H 5.5015 5.8973 37.5434 0
M  V30 68 H 6.4083 4.5779 36.8513 0
M  V30 69 C 0.9763 9.1178 26.6725 0
M  V30 70 C 0.3457 11.4391 26.6702 0
M  V30 71 C -1.7297 14.4658 33.1859 0
M  V30 72 C -0.3801 17.9413 36.0956 0
M  V30 73 H -2.1713 17.0525 35.2608 0
M  V30 74 H -1.4493 16.1203 36.5442 0
M  V30 75 H 0.9154 16.9724 37.5332 0
M  V30 76 H 1.6027 18.4165 36.8370 0
M  V30 77 C 1.1579 5.8695 32.0053 0
M  V30 78 C -0.4392 6.5272 33.6794 0
M  V30 79 C -0.3715 8.7304 26.6722 0
M  V30 80 H 1.7380 8.3484 26.6635 0
M  V30 81 C -1.0108 11.0932 26.6697 0
M  V30 82 H 0.6311 12.4834 26.6595 0
M  V30 83 C -2.5789 13.3311 32.7951 0
M  V30 84 H -1.4862 15.1462 32.3727 0
M  V30 85 H -0.2752 18.6278 35.2535 0
M  V30 86 H -0.9083 18.4949 36.8733 0
M  V30 87 C 0.1270 5.5854 31.1019 0
M  V30 88 H 2.1873 5.7140 31.7078 0
M  V30 89 C -1.5002 6.2541 32.8039 0
M  V30 90 H -0.6667 6.8813 34.6769 0
M  V30 91 C -0.7803 7.3185 26.6479 0
M  V30 92 C -1.3493 9.7323 26.6760 0
M  V30 93 C -2.0293 12.1530 26.6430 0
M  V30 94 C -3.1358 13.2957 31.5112 0
M  V30 95 C -2.8717 12.2793 33.6753 0
M  V30 96 C 0.4561 5.0687 29.7655 0
M  V30 97 C -1.1964 5.7894 31.5188 0
M  V30 98 C -2.9057 6.4216 33.2010 0
M  V30 99 N 0.0330 6.3473 26.4900 0
M  V30 100 H -1.8491 7.1575 26.7723 0
M  V30 101 H -2.3964 9.4572 26.6696 0
M  V30 102 N -3.2773 11.9337 26.4881 0
M  V30 103 H -1.6342 13.1596 26.7627 0
M  V30 104 C -3.9754 12.2505 31.0999 0
M  V30 105 H -2.9287 14.0999 30.8164 0
M  V30 106 C -3.7052 11.2180 33.3028 0
M  V30 107 H -2.4494 12.3029 34.6719 0
M  V30 108 N -0.4148 4.6403 28.9363 0
M  V30 109 H 1.5184 5.0734 29.5307 0
M  V30 110 H -1.9992 5.5661 30.8276 0
M  V30 111 N -3.2791 6.6918 34.3915 0
M  V30 112 H -3.6204 6.2912 32.3912 0
M  V30 113 C -0.5205 4.9937 26.4730 0
M  V30 114 C -4.1728 13.0899 26.4683 0
M  V30 115 C -4.5901 12.2190 29.7649 0
M  V30 116 C -4.2436 11.2192 32.0079 0
M  V30 117 C -4.0047 10.1559 34.2742 0
M  V30 118 C 0.0628 4.1419 27.6468 0
M  V30 119 C -4.7149 6.8152 34.6412 0
M  V30 120 C -0.1825 4.3654 25.0991 0
M  V30 121 H -1.6122 4.9675 26.5717 0
M  V30 122 H -3.6493 14.0487 26.5622 0
M  V30 123 C -4.8887 13.1060 25.0957 0
M  V30 124 C -5.1997 13.0154 27.6444 0
M  V30 125 N -4.5267 13.1843 28.9319 0
M  V30 126 H -5.1183 11.2962 29.5346 0
M  V30 127 H -4.8939 10.4047 31.7148 0
M  V30 128 N -4.8677 9.2363 34.0763 0
M  V30 129 H -3.4290 10.2138 35.1955 0
M  V30 130 C -0.3616 2.6576 27.5308 0
M  V30 131 H 1.1544 4.1664 27.5468 0
M  V30 132 C -5.0690 8.2535 35.1406 0
M  V30 133 C -5.1030 5.7439 35.6892 0
M  V30 134 H -5.3300 6.6253 33.7536 0
M  V30 135 H 0.8916 4.4370 24.9170 0
M  V30 136 H -0.6606 4.9362 24.3017 0
M  V30 137 C -0.6085 2.8870 25.0041 0
M  V30 138 H -5.3643 12.1394 24.9185 0
M  V30 139 H -4.1568 13.2314 24.2964 0
M  V30 140 C -5.9560 14.2139 24.9985 0
M  V30 141 C -6.2727 14.1252 27.5263 0
M  V30 142 H -5.7250 12.0577 27.5491 0
M  V30 143 C -0.0206 2.0510 26.1553 0
M  V30 144 H 0.1159 2.0720 28.3178 0
M  V30 145 H -1.4364 2.5688 27.7006 0
M  V30 146 H -4.4564 8.4421 36.0302 0
M  V30 147 C -6.5475 8.3450 35.5907 0
M  V30 148 C -6.5766 5.8532 36.1283 0
M  V30 149 H -4.9130 4.7467 35.2893 0
M  V30 150 H -4.4632 5.8417 36.5684 0
M  V30 151 H -1.6977 2.8196 25.0238 0
M  V30 152 H -0.2969 2.4709 24.0448 0
M  V30 153 H -5.4695 15.1909 25.0130 0
M  V30 154 H -6.4743 14.1482 24.0406 0
M  V30 155 C -6.9714 14.1279 26.1523 0
M  V30 156 H -7.0169 14.0081 28.3155 0
M  V30 157 H -5.8113 15.1009 27.6911 0
M  V30 158 H 1.0633 1.9879 26.0436 0
M  V30 159 H -0.3909 1.0263 26.0984 0
M  V30 160 H -6.7504 9.3352 36.0014 0
M  V30 161 H -7.2024 8.2395 34.7235 0
M  V30 162 C -6.9167 7.2682 36.6302 0
M  V30 163 H -7.2266 5.5978 35.2894 0
M  V30 164 H -6.7877 5.1204 36.9086 0
M  V30 165 H -7.6735 14.9610 26.0936 0
M  V30 166 H -7.5687 13.2206 26.0455 0
M  V30 167 H -6.3825 7.4628 37.5619 0
M  V30 168 H -7.9789 7.3326 36.8714 0
M  V30 END ATOM
M  V30 BEGIN BOND
M  V30 0 1 2 1
M  V30 1 1 3 1
M  V30 2 1 4 1
M  V30 3 1 5 2
M  V30 4 1 6 2
M  V30 5 1 7 3
M  V30 6 1 8 3
M  V30 7 1 9 5
M  V30 8 1 10 5
M  V30 9 1 11 6
M  V30 10 1 11 8
M  V30 11 1 12 6
M  V30 12 1 13 7
M  V30 13 1 14 7
M  V30 14 1 15 8
M  V30 15 1 16 9
M  V30 16 1 17 11
M  V30 17 1 18 13
M  V30 18 1 19 16
M  V30 19 1 20 16
M  V30 20 1 21 16
M  V30 21 1 22 17
M  V30 22 1 23 17
M  V30 23 1 24 18
M  V30 24 1 25 18
M  V30 25 1 26 18
M  V30 26 1 27 19
M  V30 27 1 28 19
M  V30 28 1 29 19
M  V30 29 1 30 20
M  V30 30 1 31 20
M  V30 31 1 32 20
M  V30 32 1 33 22
M  V30 33 1 34 24
M  V30 34 1 35 24
M  V30 35 1 36 24
M  V30 36 1 37 25
M  V30 37 1 38 25
M  V30 38 1 39 25
M  V30 39 1 40 27
M  V30 40 1 41 29
M  V30 41 1 42 29
M  V30 42 1 43 29
M  V30 43 1 43 30
M  V30 44 1 44 30
M  V30 45 1 45 30
M  V30 46 1 46 33
M  V30 47 1 47 33
M  V30 48 1 48 33
M  V30 49 1 49 34
M  V30 50 1 50 36
M  V30 51 1 51 36
M  V30 52 1 52 36
M  V30 53 1 52 37
M  V30 54 1 53 37
M  V30 55 1 54 37
M  V30 56 1 55 40
M  V30 57 1 56 40
M  V30 58 1 57 43
M  V30 59 1 58 43
M  V30 60 1 59 46
M  V30 61 1 60 46
M  V30 62 1 61 46
M  V30 63 1 62 48
M  V30 64 1 63 48
M  V30 65 1 64 48
M  V30 66 1 65 49
M  V30 67 1 66 49
M  V30 68 1 67 52
M  V30 69 1 68 52
M  V30 70 1 69 55
M  V30 71 1 70 55
M  V30 72 1 71 59
M  V30 73 1 72 64
M  V30 74 1 72 60
M  V30 75 1 73 60
M  V30 76 1 74 60
M  V30 77 1 75 64
M  V30 78 1 76 64
M  V30 79 1 77 65
M  V30 80 1 78 65
M  V30 81 1 79 69
M  V30 82 1 80 69
M  V30 83 1 81 70
M  V30 84 1 82 70
M  V30 85 1 83 71
M  V30 86 1 84 71
M  V30 87 1 85 72
M  V30 88 1 86 72
M  V30 89 1 87 77
M  V30 90 1 88 77
M  V30 91 1 89 78
M  V30 92 1 90 78
M  V30 93 1 91 79
M  V30 94 1 92 79
M  V30 95 1 92 81
M  V30 96 1 93 81
M  V30 97 1 94 83
M  V30 98 1 95 83
M  V30 99 1 96 87
M  V30 100 1 97 87
M  V30 101 1 97 89
M  V30 102 1 98 89
M  V30 103 1 99 91
M  V30 104 1 100 91
M  V30 105 1 101 92
M  V30 106 1 102 93
M  V30 107 1 103 93
M  V30 108 1 104 94
M  V30 109 1 105 94
M  V30 110 1 106 95
M  V30 111 1 107 95
M  V30 112 1 108 96
M  V30 113 1 109 96
M  V30 114 1 110 97
M  V30 115 1 111 98
M  V30 116 1 112 98
M  V30 117 1 113 99
M  V30 118 1 114 102
M  V30 119 1 115 104
M  V30 120 1 116 104
M  V30 121 1 116 106
M  V30 122 1 117 106
M  V30 123 1 118 113
M  V30 124 1 118 108
M  V30 125 1 119 111
M  V30 126 1 120 113
M  V30 127 1 121 113
M  V30 128 1 122 114
M  V30 129 1 123 114
M  V30 130 1 124 114
M  V30 131 1 125 124
M  V30 132 1 125 115
M  V30 133 1 126 115
M  V30 134 1 127 116
M  V30 135 1 128 117
M  V30 136 1 129 117
M  V30 137 1 130 118
M  V30 138 1 131 118
M  V30 139 1 132 128
M  V30 140 1 132 119
M  V30 141 1 133 119
M  V30 142 1 134 119
M  V30 143 1 135 120
M  V30 144 1 136 120
M  V30 145 1 137 120
M  V30 146 1 138 123
M  V30 147 1 139 123
M  V30 148 1 140 123
M  V30 149 1 141 124
M  V30 150 1 142 124
M  V30 151 1 143 137
M  V30 152 1 143 130
M  V30 153 1 144 130
M  V30 154 1 145 130
M  V30 155 1 146 132
M  V30 156 1 147 132
M  V30 157 1 148 133
M  V30 158 1 149 133
M  V30 159 1 150 133
M  V30 160 1 151 137
M  V30 161 1 152 137
M  V30 162 1 153 140
M  V30 163 1 154 140
M  V30 164 1 155 140
M  V30 165 1 155 141
M  V30 166 1 156 141
M  V30 167 1 157 141
M  V30 168 1 158 143
M  V30 169 1 159 143
M  V30 170 1 160 147
M  V30 171 1 161 147
M  V30 172 1 162 148
M  V30 173 1 162 147
M  V30 174 1 163 148
M  V30 175 1 164 148
M  V30 176 1 165 155
M  V30 177 1 166 155
M  V30 178 1 167 162
M  V30 179 1 168 162
M  V30 END BOND
M  V30 END CTAB
M  END

$$$$
