
     RDKit          3D

  0  0  0  0  0  0  0  0  0  0999 V3000
M  V30 BEGIN CTAB
M  V30 COUNTS 108 114 0 0 0
M  V30 BEGIN ATOM
M  V30 1 C 5.8753 17.7161 11.6843 0
M  V30 2 N 4.9531 17.5026 12.7931 0
M  V30 3 C 6.4177 19.1629 11.6844 0
M  V30 4 H 5.3313 17.5461 10.7539 0
M  V30 5 H 6.7180 17.0167 11.6509 0
M  V30 6 C 5.2614 16.6100 13.6505 0
M  V30 7 N 7.3399 19.3764 12.7931 0
M  V30 8 H 6.9617 19.3330 10.7539 0
M  V30 9 H 5.5750 19.8623 11.6510 0
M  V30 10 H 6.1729 16.0221 13.5645 0
M  V30 11 C 4.4346 16.2855 14.8197 0
M  V30 12 C 7.0316 20.2690 13.6505 0
M  V30 13 C 4.7589 15.1756 15.6088 0
M  V30 14 C 3.3157 17.0519 15.1756 0
M  V30 15 H 6.1201 20.8569 13.5645 0
M  V30 16 C 7.8584 20.5935 14.8197 0
M  V30 17 C 3.9925 14.8197 16.7276 0
M  V30 18 H 5.6180 14.5684 15.3526 0
M  V30 19 C 2.5267 16.7276 16.2855 0
M  V30 20 H 3.0596 17.9110 14.5683 0
M  V30 21 C 8.9772 19.8271 15.1756 0
M  V30 22 C 7.5341 21.7034 15.6088 0
M  V30 23 C 4.3170 13.6505 17.5544 0
M  V30 24 C 2.8826 15.6088 17.0519 0
M  V30 25 C 1.3575 17.5544 16.6100 0
M  V30 26 C 9.7663 20.1514 16.2855 0
M  V30 27 H 9.2334 18.9680 14.5684 0
M  V30 28 C 8.3005 22.0593 16.7276 0
M  V30 29 H 6.6750 22.3106 15.3526 0
M  V30 30 N 5.2096 12.7931 17.2461 0
M  V30 31 H 3.7291 13.5645 18.4658 0
M  V30 32 H 2.2754 15.3526 17.9110 0
M  V30 33 N 0.5001 17.2461 17.5026 0
M  V30 34 H 1.2715 18.4658 16.0221 0
M  V30 35 C 10.9355 19.3246 16.6100 0
M  V30 36 C 9.4104 21.2702 17.0519 0
M  V30 37 C 7.9760 23.2285 17.5544 0
M  V30 38 C 5.4231 11.6844 18.1683 0
M  V30 39 C -0.6086 18.1683 17.7161 0
M  V30 40 N 11.7929 19.6329 17.5026 0
M  V30 41 H 11.0215 18.4132 16.0221 0
M  V30 42 H 10.0176 21.5264 17.9110 0
M  V30 43 N 7.0834 24.0859 17.2461 0
M  V30 44 H 8.5639 23.3145 18.4658 0
M  V30 45 C 6.8699 11.6843 18.7107 0
M  V30 46 H 5.2530 10.7539 17.6243 0
M  V30 47 H 4.7237 11.6510 19.0110 0
M  V30 48 C -0.6086 18.7107 19.1629 0
M  V30 49 H -1.5391 17.6243 17.5460 0
M  V30 50 H -0.6420 19.0110 17.0167 0
M  V30 51 C 12.9016 18.7107 17.7161 0
M  V30 52 C 6.8699 25.1946 18.1683 0
M  V30 53 N 7.0834 12.7931 19.6330 0
M  V30 54 H 7.0399 10.7539 19.2547 0
M  V30 55 H 7.5693 11.6509 17.8680 0
M  V30 56 N 0.5001 19.6329 19.3764 0
M  V30 57 H -1.5391 19.2547 19.3330 0
M  V30 58 H -0.6420 17.8680 19.8623 0
M  V30 59 C 12.9016 18.1683 19.1629 0
M  V30 60 H 13.8321 19.2547 17.5461 0
M  V30 61 H 12.9350 17.8680 17.0167 0
M  V30 62 C 5.4231 25.1946 18.7107 0
M  V30 63 H 7.0399 26.1251 17.6243 0
M  V30 64 H 7.5693 25.2280 19.0110 0
M  V30 65 C 7.9760 13.6505 19.3246 0
M  V30 66 C 1.3575 19.3246 20.2690 0
M  V30 67 N 11.7929 17.2460 19.3764 0
M  V30 68 H 13.8321 17.6243 19.3330 0
M  V30 69 H 12.9350 19.0110 19.8623 0
M  V30 70 N 5.2096 24.0859 19.6330 0
M  V30 71 H 5.2530 26.1251 19.2547 0
M  V30 72 H 4.7237 25.2280 17.8680 0
M  V30 73 H 8.5639 13.5645 18.4131 0
M  V30 74 C 8.3005 14.8197 20.1514 0
M  V30 75 H 1.2715 18.4131 20.8569 0
M  V30 76 C 2.5267 20.1514 20.5935 0
M  V30 77 C 10.9355 17.5544 20.2690 0
M  V30 78 C 4.3170 23.2285 19.3246 0
M  V30 79 C 9.4104 15.6087 19.8271 0
M  V30 80 C 7.5341 15.1756 21.2703 0
M  V30 81 C 3.3157 19.8271 21.7034 0
M  V30 82 C 2.8826 21.2703 19.8271 0
M  V30 83 H 11.0215 18.4659 20.8569 0
M  V30 84 C 9.7663 16.7276 20.5935 0
M  V30 85 H 3.7291 23.3144 18.4131 0
M  V30 86 C 3.9925 22.0593 20.1514 0
M  V30 87 H 10.0176 15.3526 18.9680 0
M  V30 88 C 7.8584 16.2855 22.0593 0
M  V30 89 H 6.6750 14.5683 21.5264 0
M  V30 90 C 4.4346 20.5935 22.0593 0
M  V30 91 H 3.0596 18.9680 22.3106 0
M  V30 92 H 2.2753 21.5264 18.9680 0
M  V30 93 C 8.9772 17.0519 21.7034 0
M  V30 94 C 4.7589 21.7034 21.2703 0
M  V30 95 C 7.0316 16.6100 23.2285 0
M  V30 96 C 5.2614 20.2690 23.2285 0
M  V30 97 H 9.2334 17.9110 22.3106 0
M  V30 98 H 5.6180 22.3106 21.5264 0
M  V30 99 N 7.3399 17.5026 24.0859 0
M  V30 100 H 6.1202 16.0221 23.3145 0
M  V30 101 N 4.9531 19.3764 24.0859 0
M  V30 102 H 6.1728 20.8569 23.3145 0
M  V30 103 C 6.4177 17.7161 25.1946 0
M  V30 104 C 5.8753 19.1629 25.1946 0
M  V30 105 H 6.9617 17.5460 26.1251 0
M  V30 106 H 5.5750 17.0167 25.2280 0
M  V30 107 H 5.3313 19.3330 26.1251 0
M  V30 108 H 6.7180 19.8623 25.2280 0
M  V30 END ATOM
M  V30 BEGIN BOND
M  V30 0 1 2 1
M  V30 1 1 3 1
M  V30 2 1 4 1
M  V30 3 1 5 1
M  V30 4 1 6 2
M  V30 5 1 7 3
M  V30 6 1 8 3
M  V30 7 1 9 3
M  V30 8 1 10 6
M  V30 9 1 11 6
M  V30 10 1 12 7
M  V30 11 1 13 11
M  V30 12 1 14 11
M  V30 13 1 15 12
M  V30 14 1 16 12
M  V30 15 1 17 13
M  V30 16 1 18 13
M  V30 17 1 19 14
M  V30 18 1 20 14
M  V30 19 1 21 16
M  V30 20 1 22 16
M  V30 21 1 23 17
M  V30 22 1 24 17
M  V30 23 1 24 19
M  V30 24 1 25 19
M  V30 25 1 26 21
M  V30 26 1 27 21
M  V30 27 1 28 22
M  V30 28 1 29 22
M  V30 29 1 30 23
M  V30 30 1 31 23
M  V30 31 1 32 24
M  V30 32 1 33 25
M  V30 33 1 34 25
M  V30 34 1 35 26
M  V30 35 1 36 26
M  V30 36 1 36 28
M  V30 37 1 37 28
M  V30 38 1 38 30
M  V30 39 1 39 33
M  V30 40 1 40 35
M  V30 41 1 41 35
M  V30 42 1 42 36
M  V30 43 1 43 37
M  V30 44 1 44 37
M  V30 45 1 45 38
M  V30 46 1 46 38
M  V30 47 1 47 38
M  V30 48 1 48 39
M  V30 49 1 49 39
M  V30 50 1 50 39
M  V30 51 1 51 40
M  V30 52 1 52 43
M  V30 53 1 53 45
M  V30 54 1 54 45
M  V30 55 1 55 45
M  V30 56 1 56 48
M  V30 57 1 57 48
M  V30 58 1 58 48
M  V30 59 1 59 51
M  V30 60 1 60 51
M  V30 61 1 61 51
M  V30 62 1 62 52
M  V30 63 1 63 52
M  V30 64 1 64 52
M  V30 65 1 65 53
M  V30 66 1 66 56
M  V30 67 1 67 59
M  V30 68 1 68 59
M  V30 69 1 69 59
M  V30 70 1 70 62
M  V30 71 1 71 62
M  V30 72 1 72 62
M  V30 73 1 73 65
M  V30 74 1 74 65
M  V30 75 1 75 66
M  V30 76 1 76 66
M  V30 77 1 77 67
M  V30 78 1 78 70
M  V30 79 1 79 74
M  V30 80 1 80 74
M  V30 81 1 81 76
M  V30 82 1 82 76
M  V30 83 1 83 77
M  V30 84 1 84 79
M  V30 85 1 84 77
M  V30 86 1 85 78
M  V30 87 1 86 82
M  V30 88 1 86 78
M  V30 89 1 87 79
M  V30 90 1 88 80
M  V30 91 1 89 80
M  V30 92 1 90 81
M  V30 93 1 91 81
M  V30 94 1 92 82
M  V30 95 1 93 88
M  V30 96 1 93 84
M  V30 97 1 94 90
M  V30 98 1 94 86
M  V30 99 1 95 88
M  V30 100 1 96 90
M  V30 101 1 97 93
M  V30 102 1 98 94
M  V30 103 1 99 95
M  V30 104 1 100 95
M  V30 105 1 101 96
M  V30 106 1 102 96
M  V30 107 1 103 99
M  V30 108 1 104 101
M  V30 109 1 104 103
M  V30 110 1 105 103
M  V30 111 1 106 103
M  V30 112 1 107 104
M  V30 113 1 108 104
M  V30 END BOND
M  V30 END CTAB
M  END

$$$$
