
     RDKit          3D

  0  0  0  0  0  0  0  0  0  0999 V3000
M  V30 BEGIN CTAB
M  V30 COUNTS 228 246 0 0 0
M  V30 BEGIN ATOM
M  V30 1 C 5.9959 4.5760 21.5697 0
M  V30 2 C 5.8923 3.4534 20.5169 0
M  V30 3 H 5.5773 4.2270 22.5154 0
M  V30 4 H 7.0443 4.8031 21.7692 0
M  V30 5 C 5.2577 5.8524 21.1225 0
M  V30 6 C 4.4260 3.1481 20.1289 0
M  V30 7 H 6.4549 3.7444 19.6278 0
M  V30 8 H 6.3734 2.5502 20.8949 0
M  V30 9 C 3.7946 5.5628 20.7287 0
M  V30 10 H 5.2877 6.5980 21.9185 0
M  V30 11 H 5.7813 6.2959 20.2737 0
M  V30 12 N 4.4308 2.1530 19.0564 0
M  V30 13 H 3.9211 2.8040 21.0394 0
M  V30 14 C 3.6846 4.4451 19.6654 0
M  V30 15 H 3.3266 6.4763 20.3588 0
M  V30 16 H 3.2344 5.2774 21.6211 0
M  V30 17 C 3.8979 1.0192 19.3012 0
M  V30 18 N 2.2642 4.1812 19.4281 0
M  V30 19 H 4.2105 4.8125 18.7760 0
M  V30 20 C 3.7705 -0.0572 18.3093 0
M  V30 21 H 3.4918 0.7759 20.2807 0
M  V30 22 C 1.8617 4.2002 18.2165 0
M  V30 23 C 4.0286 0.1521 16.9463 0
M  V30 24 C 3.3460 -1.3294 18.7184 0
M  V30 25 H 2.5405 4.4117 17.3928 0
M  V30 26 C 0.4764 3.9342 17.8033 0
M  V30 27 C 3.8500 -0.8740 16.0187 0
M  V30 28 H 4.3487 1.1272 16.6033 0
M  V30 29 C 3.1695 -2.3799 17.8036 0
M  V30 30 H 3.1375 -1.5123 19.7651 0
M  V30 31 C 0.1324 4.0326 16.4495 0
M  V30 32 C -0.5215 3.5615 18.7182 0
M  V30 33 C 4.0665 -0.6300 14.6004 0
M  V30 34 C 3.4265 -2.1313 16.4497 0
M  V30 35 C 2.7071 -3.7126 18.2168 0
M  V30 36 H 0.8805 4.3031 15.7162 0
M  V30 37 C -1.1682 3.7707 16.0186 0
M  V30 38 H -0.2588 3.4724 19.7649 0
M  V30 39 C -1.8355 3.2929 18.3091 0
M  V30 40 C 4.1797 -0.4358 13.3993 0
M  V30 41 H 3.2864 -2.9144 15.7164 0
M  V30 42 N 2.4893 -4.0517 19.4284 0
M  V30 43 H 2.5505 -4.4061 17.3931 0
M  V30 44 C -1.4879 3.8364 14.6003 0
M  V30 45 C -2.1460 3.4121 16.9462 0
M  V30 46 C -2.8314 2.8653 19.3011 0
M  V30 47 C 4.2334 -0.2126 11.9625 0
M  V30 48 C 2.0075 -5.4137 19.6655 0
M  V30 49 C -1.7128 3.8373 13.3993 0
M  V30 50 H -3.1506 3.2019 16.6034 0
M  V30 51 N -4.0797 2.7602 19.0564 0
M  V30 52 H -2.4175 2.6352 20.2806 0
M  V30 53 C 4.2377 1.0904 11.4614 0
M  V30 54 C 4.2479 -1.3034 11.0911 0
M  V30 55 C 0.5135 -5.4071 20.1289 0
M  V30 56 C 2.9202 -6.0681 20.7288 0
M  V30 57 H 2.0626 -6.0528 18.7761 0
M  V30 58 C -1.9329 3.7721 11.9624 0
M  V30 59 C -4.9392 2.2588 20.1290 0
M  V30 60 C 4.2383 1.3033 10.0840 0
M  V30 61 H 4.2245 1.9369 12.1330 0
M  V30 62 H 4.2435 -2.3133 11.4755 0
M  V30 63 C 4.2475 -1.0906 9.7138 0
M  V30 64 N -0.3505 -4.9135 19.0563 0
M  V30 65 H 0.4679 -4.7979 21.0395 0
M  V30 66 C 0.0445 -6.8296 20.5167 0
M  V30 67 C 2.4392 -7.4800 21.1223 0
M  V30 68 H 3.9454 -6.1195 20.3590 0
M  V30 69 H 2.9532 -5.4404 21.6213 0
M  V30 70 C -0.9976 4.3338 11.0911 0
M  V30 71 C -3.0612 3.1205 11.4612 0
M  V30 72 C -5.6919 0.9682 19.6655 0
M  V30 73 H -4.3888 1.9936 21.0395 0
M  V30 74 C -5.9365 3.3762 20.5167 0
M  V30 75 H 4.2265 2.3131 9.6996 0
M  V30 76 C 4.2336 0.2124 9.2127 0
M  V30 77 H 4.2419 -1.9370 9.0420 0
M  V30 78 C -1.0659 -3.8851 19.3011 0
M  V30 79 H 0.0151 -7.4622 19.6274 0
M  V30 80 H -0.9783 -6.7945 20.8947 0
M  V30 81 C 0.9648 -7.4809 21.5694 0
M  V30 82 H 2.5616 -8.1549 20.2733 0
M  V30 83 H 3.0698 -7.8790 21.9182 0
M  V30 84 H -0.1225 4.8380 11.4756 0
M  V30 85 C -1.1816 4.2270 9.7137 0
M  V30 86 C -3.2457 3.0145 10.0839 0
M  V30 87 H -3.7859 2.6828 12.1328 0
M  V30 88 N -4.7533 -0.1300 19.4283 0
M  V30 89 C -6.7150 0.5050 20.7288 0
M  V30 90 H -6.2729 1.2401 18.7761 0
M  V30 91 H -6.4696 3.7180 19.6275 0
M  V30 92 H -5.3946 4.2444 20.8948 0
M  V30 93 C -6.9608 2.9050 21.5694 0
M  V30 94 C 4.1802 0.4353 7.7757 0
M  V30 95 H -1.0736 -3.4118 20.2807 0
M  V30 96 C -1.9343 -3.2366 18.3092 0
M  V30 97 H 0.8718 -6.9441 22.5151 0
M  V30 98 H 0.6371 -8.5024 21.7687 0
M  V30 99 C -2.3008 3.5598 9.2126 0
M  V30 100 H -0.4474 4.6484 9.0421 0
M  V30 101 H -4.1125 2.4964 9.6994 0
M  V30 102 C -4.5686 -0.4883 18.2167 0
M  V30 103 H -7.2721 -0.3570 20.3590 0
M  V30 104 H -6.1878 0.1626 21.6213 0
M  V30 105 C -7.6971 1.6275 21.1224 0
M  V30 106 H -6.4494 2.7172 22.5152 0
M  V30 107 H -7.6816 3.6995 21.7685 0
M  V30 108 C 4.0669 0.6292 6.5746 0
M  V30 109 C -2.8239 -2.2329 18.7183 0
M  V30 110 C -1.8824 -3.5651 16.9462 0
M  V30 111 C -2.4669 3.4021 7.7756 0
M  V30 112 C -3.6458 -1.5552 17.8036 0
M  V30 113 H -5.0909 -0.0060 17.3930 0
M  V30 114 H -8.3580 1.2809 21.9183 0
M  V30 115 H -8.3429 1.8591 20.2734 0
M  V30 116 C 3.8501 0.8732 5.1563 0
M  V30 117 H -2.8780 -1.9608 19.7650 0
M  V30 118 C -2.6819 -2.8976 16.0188 0
M  V30 119 H -1.1980 -4.3299 16.6034 0
M  V30 120 C -2.5783 3.2070 6.5746 0
M  V30 121 C -3.5591 -1.9023 16.4497 0
M  V30 122 C 3.4269 2.1306 4.7253 0
M  V30 123 C 4.0281 -0.1531 4.2288 0
M  V30 124 C -2.5791 -3.2074 14.6004 0
M  V30 125 C -2.6813 2.8975 5.1562 0
M  V30 126 H -4.1675 -1.3897 15.7165 0
M  V30 127 C 3.1696 2.3792 3.3715 0
M  V30 128 H 3.2874 2.9138 5.4586 0
M  V30 129 C 3.7696 0.0562 2.8659 0
M  V30 130 H 4.3482 -1.1282 4.5717 0
M  V30 131 C -2.4675 -3.4025 13.3994 0
M  V30 132 C -1.8818 3.5650 4.2287 0
M  V30 133 C -3.5587 1.9023 4.7254 0
M  V30 134 C 2.7074 3.7119 2.9582 0
M  V30 135 C 3.3454 1.3285 2.4568 0
M  V30 136 C 3.8969 -1.0202 1.8740 0
M  V30 137 C -2.3009 -3.5605 11.9625 0
M  V30 138 C -1.9340 3.2367 2.8657 0
M  V30 139 H -1.1973 4.3296 4.5716 0
M  V30 140 C -3.6455 1.5553 3.3715 0
M  V30 141 H -4.1670 1.3897 5.4587 0
M  V30 142 N 2.4895 4.0510 1.7466 0
M  V30 143 H 2.5511 4.4055 3.7819 0
M  V30 144 H 3.1368 1.5113 1.4100 0
M  V30 145 N 4.4299 -2.1539 2.1188 0
M  V30 146 H 3.4907 -0.7768 0.8945 0
M  V30 147 C -3.2543 -3.0303 11.0911 0
M  V30 148 C -1.1730 -4.2129 11.4614 0
M  V30 149 C -1.0655 3.8851 1.8738 0
M  V30 150 C -2.8237 2.2330 2.4567 0
M  V30 151 C -4.5686 0.4887 2.9584 0
M  V30 152 C 2.0081 5.4131 1.5094 0
M  V30 153 C 4.4254 -3.1489 1.0461 0
M  V30 154 H -4.1280 -2.5237 11.4755 0
M  V30 155 C -3.0696 -3.1362 9.7137 0
M  V30 156 C -0.9888 -4.3197 10.0841 0
M  V30 157 H -0.4322 -4.6226 12.1331 0
M  V30 158 N -0.3501 4.9135 2.1185 0
M  V30 159 H -1.0731 3.4115 0.8943 0
M  V30 160 H -2.8779 1.9610 1.4100 0
M  V30 161 N -4.7534 0.1305 1.7468 0
M  V30 162 H -5.0911 0.0065 3.7820 0
M  V30 163 C 0.5141 5.4068 1.0459 0
M  V30 164 C 2.9210 6.0673 0.4462 0
M  V30 165 H 2.0633 6.0521 2.3988 0
M  V30 166 C 3.6840 -4.4460 1.5095 0
M  V30 167 H 3.9207 -2.8048 0.1355 0
M  V30 168 C 5.8918 -3.4540 0.6585 0
M  V30 169 C -1.9327 -3.7729 9.2127 0
M  V30 170 H -3.8010 -2.7102 9.0420 0
M  V30 171 H -0.1071 -4.8122 9.6997 0
M  V30 172 C -5.6922 -0.9676 1.5095 0
M  V30 173 H 0.4684 4.7976 0.1354 0
M  V30 174 C 0.0454 6.8294 0.6581 0
M  V30 175 C 2.4403 7.4793 0.0526 0
M  V30 176 H 3.9461 6.1186 0.8160 0
M  V30 177 H 2.9539 5.4396 -0.4464 0
M  V30 178 N 2.2636 -4.1821 1.7466 0
M  V30 179 C 3.7943 -5.5636 0.4462 0
M  V30 180 H 4.2098 -4.8133 2.3990 0
M  V30 181 C 5.9957 -4.5766 -0.3943 0
M  V30 182 H 6.4543 -3.7449 1.5478 0
M  V30 183 H 6.3728 -2.5507 0.2805 0
M  V30 184 C -1.7129 -3.8378 7.7757 0
M  V30 185 C -4.9397 -2.2582 1.0461 0
M  V30 186 C -6.7151 -0.5041 0.4462 0
M  V30 187 H -6.2733 -1.2393 2.3989 0
M  V30 188 H 0.0161 7.4620 1.5473 0
M  V30 189 H -0.9774 6.7945 0.2799 0
M  V30 190 C 0.9659 7.4806 -0.3946 0
M  V30 191 H 2.5627 8.1543 0.9016 0
M  V30 192 H 3.0710 7.8782 -0.7433 0
M  V30 193 C 1.8610 -4.2009 2.9582 0
M  V30 194 H 3.2343 -5.2782 -0.4463 0
M  V30 195 H 3.3262 -6.4771 0.8160 0
M  V30 196 C 5.2576 -5.8530 0.0528 0
M  V30 197 H 5.5774 -4.2276 -1.3400 0
M  V30 198 H 7.0442 -4.8036 -0.5935 0
M  V30 199 C -1.4883 -3.8367 6.5746 0
M  V30 200 N -4.0803 -2.7598 2.1187 0
M  V30 201 H -4.3892 -1.9931 0.1356 0
M  V30 202 C -5.9372 -3.3755 0.6582 0
M  V30 203 C -7.6974 -1.6264 0.0524 0
M  V30 204 H -6.1879 -0.1616 -0.4462 0
M  V30 205 H -7.2722 0.3580 0.8161 0
M  V30 206 H 0.8728 6.9438 -1.3404 0
M  V30 207 H 0.6383 8.5021 -0.5938 0
M  V30 208 H 2.5398 -4.4123 3.7819 0
M  V30 209 C 0.4757 -3.9349 3.3714 0
M  V30 210 H 5.2878 -6.5987 -0.7431 0
M  V30 211 H 5.7809 -6.2965 0.9018 0
M  V30 212 C -1.1687 -3.7710 5.1563 0
M  V30 213 C -2.8320 -2.8653 1.8739 0
M  V30 214 C -6.9612 -2.9039 -0.3946 0
M  V30 215 H -6.4705 -3.7171 1.5474 0
M  V30 216 H -5.3955 -4.2437 0.2803 0
M  V30 217 H -8.3434 -1.8579 0.9013 0
M  V30 218 H -8.3581 -1.2796 -0.7436 0
M  V30 219 C 0.1318 -4.0333 4.7253 0
M  V30 220 C -0.5222 -3.5621 2.4567 0
M  V30 221 C -2.1465 -3.4122 4.2288 0
M  V30 222 C -1.8361 -3.2932 2.8658 0
M  V30 223 H -2.4182 -2.6353 0.8944 0
M  V30 224 H -6.4496 -2.7161 -1.3403 0
M  V30 225 H -7.6820 -3.6983 -0.5940 0
M  V30 226 H 0.8800 -4.3039 5.4585 0
M  V30 227 H -0.2596 -3.4730 1.4099 0
M  V30 228 H -3.1509 -3.2017 4.5718 0
M  V30 END ATOM
M  V30 BEGIN BOND
M  V30 0 1 2 1
M  V30 1 1 3 1
M  V30 2 1 4 1
M  V30 3 1 5 1
M  V30 4 1 6 2
M  V30 5 1 7 2
M  V30 6 1 8 2
M  V30 7 1 9 5
M  V30 8 1 10 5
M  V30 9 1 11 5
M  V30 10 1 12 6
M  V30 11 1 13 6
M  V30 12 1 14 6
M  V30 13 1 14 9
M  V30 14 1 15 9
M  V30 15 1 16 9
M  V30 16 1 17 12
M  V30 17 1 18 14
M  V30 18 1 19 14
M  V30 19 1 20 17
M  V30 20 1 21 17
M  V30 21 1 22 18
M  V30 22 1 23 20
M  V30 23 1 24 20
M  V30 24 1 25 22
M  V30 25 1 26 22
M  V30 26 1 27 23
M  V30 27 1 28 23
M  V30 28 1 29 24
M  V30 29 1 30 24
M  V30 30 1 31 26
M  V30 31 1 32 26
M  V30 32 1 33 27
M  V30 33 1 34 27
M  V30 34 1 34 29
M  V30 35 1 35 29
M  V30 36 1 36 31
M  V30 37 1 37 31
M  V30 38 1 38 32
M  V30 39 1 39 32
M  V30 40 1 40 33
M  V30 41 1 41 34
M  V30 42 1 42 35
M  V30 43 1 43 35
M  V30 44 1 44 37
M  V30 45 1 45 37
M  V30 46 1 45 39
M  V30 47 1 46 39
M  V30 48 1 47 40
M  V30 49 1 48 42
M  V30 50 1 49 44
M  V30 51 1 50 45
M  V30 52 1 51 46
M  V30 53 1 52 46
M  V30 54 1 53 47
M  V30 55 1 54 47
M  V30 56 1 55 48
M  V30 57 1 56 48
M  V30 58 1 57 48
M  V30 59 1 58 49
M  V30 60 1 59 51
M  V30 61 1 60 53
M  V30 62 1 61 53
M  V30 63 1 62 54
M  V30 64 1 63 54
M  V30 65 1 64 55
M  V30 66 1 65 55
M  V30 67 1 66 55
M  V30 68 1 67 56
M  V30 69 1 68 56
M  V30 70 1 69 56
M  V30 71 1 70 58
M  V30 72 1 71 58
M  V30 73 1 72 59
M  V30 74 1 73 59
M  V30 75 1 74 59
M  V30 76 1 75 60
M  V30 77 1 76 63
M  V30 78 1 76 60
M  V30 79 1 77 63
M  V30 80 1 78 64
M  V30 81 1 79 66
M  V30 82 1 80 66
M  V30 83 1 81 67
M  V30 84 1 81 66
M  V30 85 1 82 67
M  V30 86 1 83 67
M  V30 87 1 84 70
M  V30 88 1 85 70
M  V30 89 1 86 71
M  V30 90 1 87 71
M  V30 91 1 88 72
M  V30 92 1 89 72
M  V30 93 1 90 72
M  V30 94 1 91 74
M  V30 95 1 92 74
M  V30 96 1 93 74
M  V30 97 1 94 76
M  V30 98 1 95 78
M  V30 99 1 96 78
M  V30 100 1 97 81
M  V30 101 1 98 81
M  V30 102 1 99 86
M  V30 103 1 99 85
M  V30 104 1 100 85
M  V30 105 1 101 86
M  V30 106 1 102 88
M  V30 107 1 103 89
M  V30 108 1 104 89
M  V30 109 1 105 93
M  V30 110 1 105 89
M  V30 111 1 106 93
M  V30 112 1 107 93
M  V30 113 1 108 94
M  V30 114 1 109 96
M  V30 115 1 110 96
M  V30 116 1 111 99
M  V30 117 1 112 109
M  V30 118 1 112 102
M  V30 119 1 113 102
M  V30 120 1 114 105
M  V30 121 1 115 105
M  V30 122 1 116 108
M  V30 123 1 117 109
M  V30 124 1 118 110
M  V30 125 1 119 110
M  V30 126 1 120 111
M  V30 127 1 121 118
M  V30 128 1 121 112
M  V30 129 1 122 116
M  V30 130 1 123 116
M  V30 131 1 124 118
M  V30 132 1 125 120
M  V30 133 1 126 121
M  V30 134 1 127 122
M  V30 135 1 128 122
M  V30 136 1 129 123
M  V30 137 1 130 123
M  V30 138 1 131 124
M  V30 139 1 132 125
M  V30 140 1 133 125
M  V30 141 1 134 127
M  V30 142 1 135 129
M  V30 143 1 135 127
M  V30 144 1 136 129
M  V30 145 1 137 131
M  V30 146 1 138 132
M  V30 147 1 139 132
M  V30 148 1 140 133
M  V30 149 1 141 133
M  V30 150 1 142 134
M  V30 151 1 143 134
M  V30 152 1 144 135
M  V30 153 1 145 136
M  V30 154 1 146 136
M  V30 155 1 147 137
M  V30 156 1 148 137
M  V30 157 1 149 138
M  V30 158 1 150 140
M  V30 159 1 150 138
M  V30 160 1 151 140
M  V30 161 1 152 142
M  V30 162 1 153 145
M  V30 163 1 154 147
M  V30 164 1 155 147
M  V30 165 1 156 148
M  V30 166 1 157 148
M  V30 167 1 158 149
M  V30 168 1 159 149
M  V30 169 1 160 150
M  V30 170 1 161 151
M  V30 171 1 162 151
M  V30 172 1 163 158
M  V30 173 1 163 152
M  V30 174 1 164 152
M  V30 175 1 165 152
M  V30 176 1 166 153
M  V30 177 1 167 153
M  V30 178 1 168 153
M  V30 179 1 169 156
M  V30 180 1 169 155
M  V30 181 1 170 155
M  V30 182 1 171 156
M  V30 183 1 172 161
M  V30 184 1 173 163
M  V30 185 1 174 163
M  V30 186 1 175 164
M  V30 187 1 176 164
M  V30 188 1 177 164
M  V30 189 1 178 166
M  V30 190 1 179 166
M  V30 191 1 180 166
M  V30 192 1 181 168
M  V30 193 1 182 168
M  V30 194 1 183 168
M  V30 195 1 184 169
M  V30 196 1 185 172
M  V30 197 1 186 172
M  V30 198 1 187 172
M  V30 199 1 188 174
M  V30 200 1 189 174
M  V30 201 1 190 175
M  V30 202 1 190 174
M  V30 203 1 191 175
M  V30 204 1 192 175
M  V30 205 1 193 178
M  V30 206 1 194 179
M  V30 207 1 195 179
M  V30 208 1 196 181
M  V30 209 1 196 179
M  V30 210 1 197 181
M  V30 211 1 198 181
M  V30 212 1 199 184
M  V30 213 1 200 185
M  V30 214 1 201 185
M  V30 215 1 202 185
M  V30 216 1 203 186
M  V30 217 1 204 186
M  V30 218 1 205 186
M  V30 219 1 206 190
M  V30 220 1 207 190
M  V30 221 1 208 193
M  V30 222 1 209 193
M  V30 223 1 210 196
M  V30 224 1 211 196
M  V30 225 1 212 199
M  V30 226 1 213 200
M  V30 227 1 214 203
M  V30 228 1 214 202
M  V30 229 1 215 202
M  V30 230 1 216 202
M  V30 231 1 217 203
M  V30 232 1 218 203
M  V30 233 1 219 212
M  V30 234 1 219 209
M  V30 235 1 220 209
M  V30 236 1 221 212
M  V30 237 1 222 221
M  V30 238 1 222 220
M  V30 239 1 222 213
M  V30 240 1 223 213
M  V30 241 1 224 214
M  V30 242 1 225 214
M  V30 243 1 226 219
M  V30 244 1 227 220
M  V30 245 1 228 221
M  V30 END BOND
M  V30 END CTAB
M  END

$$$$
