
     RDKit          3D

  0  0  0  0  0  0  0  0  0  0999 V3000
M  V30 BEGIN CTAB
M  V30 COUNTS 216 234 0 0 0
M  V30 BEGIN ATOM
M  V30 1 C 3.6409 10.6401 82.8125 0
M  V30 2 C 4.7556 10.5983 83.8790 0
M  V30 3 H 3.3347 11.6722 82.6354 0
M  V30 4 H 4.0347 10.2752 81.8622 0
M  V30 5 C 2.4194 9.7920 83.2195 0
M  V30 6 C 5.1652 9.1499 84.2339 0
M  V30 7 H 5.6243 11.1550 83.5246 0
M  V30 8 H 4.4126 11.1145 84.7776 0
M  V30 9 H 1.6880 9.7809 82.4100 0
M  V30 10 H 1.9206 10.2605 84.0698 0
M  V30 11 C 2.8150 8.3470 83.5900 0
M  V30 12 H 5.5474 8.6930 83.3133 0
M  V30 13 C 3.9205 8.3069 84.6695 0
M  V30 14 N 6.1542 9.1911 85.3128 0
M  V30 15 H 3.1580 7.8276 82.6932 0
M  V30 16 H 1.9356 7.8022 83.9363 0
M  V30 17 H 3.4994 8.7931 85.5577 0
M  V30 18 N 4.2927 6.9101 84.9016 0
M  V30 19 C 7.3252 8.7514 85.0549 0
M  V30 20 C 4.3650 6.5272 86.1179 0
M  V30 21 C 8.3979 8.6407 86.0526 0
M  V30 22 H 7.6067 8.4185 84.0581 0
M  V30 23 H 4.1267 7.1978 86.9409 0
M  V30 24 C 4.7918 5.1870 86.5407 0
M  V30 25 C 8.1414 8.7057 87.4297 0
M  V30 26 C 9.7154 8.4161 85.6335 0
M  V30 27 C 4.8583 4.8892 87.9069 0
M  V30 28 C 5.1878 4.2016 85.6245 0
M  V30 29 C 9.1625 8.5548 88.3732 0
M  V30 30 H 7.1287 8.8642 87.7752 0
M  V30 31 C 10.7638 8.2639 86.5529 0
M  V30 32 H 9.9353 8.3409 84.5761 0
M  V30 33 H 4.5790 5.6361 88.6375 0
M  V30 34 C 5.3340 3.6577 88.3654 0
M  V30 35 C 5.6509 2.9492 86.0471 0
M  V30 36 H 5.1469 4.4280 84.5664 0
M  V30 37 C 10.4683 8.3520 87.9183 0
M  V30 38 C 8.8649 8.5644 89.8296 0
M  V30 39 C 12.1393 7.9648 86.1344 0
M  V30 40 C 5.7176 2.6966 87.4247 0
M  V30 41 C 5.4695 3.3968 89.8227 0
M  V30 42 C 6.0945 1.9634 85.0522 0
M  V30 43 H 11.2524 8.2186 88.6511 0
M  V30 44 C 7.8464 7.7586 90.3431 0
M  V30 45 C 9.6091 9.3546 90.7097 0
M  V30 46 N 12.5123 7.8384 84.9195 0
M  V30 47 H 12.8359 7.8337 86.9600 0
M  V30 48 H 6.0854 1.7408 87.7730 0
M  V30 49 C 6.6745 2.9178 90.3408 0
M  V30 50 C 4.4101 3.6474 90.6991 0
M  V30 51 H 6.2437 2.3720 84.0550 0
M  V30 52 N 6.2998 0.7301 85.3127 0
M  V30 53 H 7.2714 7.1236 89.6841 0
M  V30 54 C 7.5845 7.7358 91.7093 0
M  V30 55 C 9.3329 9.3458 92.0754 0
M  V30 56 H 10.3961 9.9916 90.3328 0
M  V30 57 C 13.9094 7.4639 84.6930 0
M  V30 58 H 7.5141 2.7363 89.6848 0
M  V30 59 C 6.8205 2.7031 91.7077 0
M  V30 60 C 4.5510 3.4134 92.0654 0
M  V30 61 H 3.4662 4.0103 90.3188 0
M  V30 62 C 6.8323 -0.1071 84.2359 0
M  V30 63 C 8.3178 8.5338 92.5988 0
M  V30 64 H 6.8126 7.0719 92.0694 0
M  V30 65 H 9.9119 9.9863 92.7241 0
M  V30 66 C 14.0209 5.9654 84.2555 0
M  V30 67 C 14.5012 8.4038 83.6182 0
M  V30 68 H 14.5369 7.5845 85.5843 0
M  V30 69 C 5.7597 2.9400 92.5934 0
M  V30 70 H 7.7799 2.3664 92.0712 0
M  V30 71 H 3.7047 3.5953 92.7112 0
M  V30 72 H 7.0383 0.4510 83.3148 0
M  V30 73 C 5.7838 -1.1870 83.8807 0
M  V30 74 C 8.1842 -0.7625 84.6747 0
M  V30 75 C 8.0271 8.5068 94.0680 0
M  V30 76 H 13.4390 5.8637 83.3316 0
M  V30 77 N 13.5577 5.0858 85.3305 0
M  V30 78 C 15.4823 5.5982 83.9075 0
M  V30 79 C 15.9528 8.0262 83.2547 0
M  V30 80 H 13.8846 8.3673 82.7181 0
M  V30 81 H 14.4661 9.4372 83.9661 0
M  V30 82 C 5.9233 2.7023 94.0632 0
M  V30 83 H 4.8677 -0.7140 83.5243 0
M  V30 84 H 5.5072 -1.7410 84.7797 0
M  V30 85 C 6.3071 -2.1744 82.8164 0
M  V30 86 N 9.2071 0.2586 84.9078 0
M  V30 87 C 8.7045 -1.7410 83.5972 0
M  V30 88 H 7.9720 -1.3696 85.5630 0
M  V30 89 C 6.7350 8.2412 94.5396 0
M  V30 90 C 9.0372 8.7184 95.0164 0
M  V30 91 C 12.5935 4.2911 85.0664 0
M  V30 92 H 15.5333 4.5682 83.5517 0
M  V30 93 H 16.0961 5.6364 84.8094 0
M  V30 94 C 16.0803 6.5452 82.8458 0
M  V30 95 H 16.3126 8.6671 82.4484 0
M  V30 96 H 16.6030 8.2230 84.1090 0
M  V30 97 C 6.7977 1.7162 94.5382 0
M  V30 98 C 5.2320 3.4718 95.0090 0
M  V30 99 H 5.5670 -2.9562 82.6391 0
M  V30 100 H 6.4275 -1.6521 81.8656 0
M  V30 101 C 7.6519 -2.8071 83.2263 0
M  V30 102 C 9.5002 0.5133 86.1244 0
M  V30 103 H 8.9842 -1.1853 82.7002 0
M  V30 104 H 9.6157 -2.2294 83.9457 0
M  V30 105 C 6.4448 8.1536 95.9056 0
M  V30 106 H 5.9405 8.0895 93.8229 0
M  V30 107 H 10.0474 8.9071 94.6817 0
M  V30 108 C 8.7884 8.6437 96.3948 0
M  V30 109 C 11.9579 3.4146 86.0594 0
M  V30 110 H 12.1691 4.2154 84.0675 0
M  V30 111 H 17.1285 6.2958 82.6738 0
M  V30 112 H 15.5727 6.3877 81.8925 0
M  V30 113 C 7.0143 1.5094 95.9050 0
M  V30 114 H 7.3287 1.1035 93.8237 0
M  V30 115 H 4.5648 4.2523 94.6717 0
M  V30 116 C 5.4166 3.2944 96.3881 0
M  V30 117 H 8.0289 -3.4359 82.4184 0
M  V30 118 H 7.4945 -3.4721 84.0773 0
M  V30 119 C 10.4467 1.5528 86.5491 0
M  V30 120 H 9.0362 -0.0275 86.9468 0
M  V30 121 C 5.0809 7.8084 96.3276 0
M  V30 122 C 7.4857 8.3593 96.8203 0
M  V30 123 C 9.8572 8.8010 97.3904 0
M  V30 124 C 12.1383 3.5997 87.4375 0
M  V30 125 C 11.1055 2.3876 85.6345 0
M  V30 126 C 7.9938 0.5010 96.3307 0
M  V30 127 C 6.3128 2.3086 96.8171 0
M  V30 128 C 4.7434 4.1423 97.3810 0
M  V30 129 C 10.6666 1.7604 87.9159 0
M  V30 130 H 4.3902 7.6461 95.5026 0
M  V30 131 N 4.7097 7.6780 97.5428 0
M  V30 132 H 7.2716 8.2806 97.8787 0
M  V30 133 H 9.5898 8.4596 98.3882 0
M  V30 134 N 11.0101 9.2855 97.1310 0
M  V30 135 C 11.4939 2.7881 88.3765 0
M  V30 136 H 12.7811 4.3962 87.7876 0
M  V30 137 H 10.9334 2.2384 84.5760 0
M  V30 138 N 8.2890 0.2459 97.5469 0
M  V30 139 H 8.4817 -0.0169 95.5075 0
M  V30 140 H 6.4846 2.1631 97.8761 0
M  V30 141 H 5.1710 4.0837 98.3796 0
M  V30 142 N 3.7471 4.8970 97.1184 0
M  V30 143 H 10.1564 1.1459 88.6452 0
M  V30 144 C 3.3238 7.2610 97.7665 0
M  V30 145 C 11.9988 9.2811 98.2113 0
M  V30 146 C 11.6467 3.0369 89.8340 0
M  V30 147 C 9.3422 -0.7459 97.7744 0
M  V30 148 C 3.2542 5.7575 98.1959 0
M  V30 149 C 2.7036 8.1773 98.8457 0
M  V30 150 H 2.6935 7.3687 96.8756 0
M  V30 151 H 11.6292 8.8212 99.1357 0
M  V30 152 C 12.3670 10.7430 98.5553 0
M  V30 153 C 13.2675 8.4698 97.7848 0
M  V30 154 C 11.4562 4.3203 90.3505 0
M  V30 155 C 11.9568 1.9949 90.7122 0
M  V30 156 C 10.6780 -0.0545 98.2069 0
M  V30 157 C 8.8553 -1.7402 98.8529 0
M  V30 158 H 9.5664 -1.3464 96.8846 0
M  V30 159 H 3.8351 5.6689 99.1219 0
M  V30 160 C 1.8032 5.3464 98.5375 0
M  V30 161 C 1.2626 7.7564 99.2041 0
M  V30 162 H 3.3196 8.1533 99.7466 0
M  V30 163 H 2.7099 9.2133 98.5038 0
M  V30 164 H 11.4823 11.2781 98.9032 0
M  V30 165 H 12.6978 11.2612 97.6533 0
M  V30 166 C 13.4773 10.8238 99.6241 0
M  V30 167 N 12.9367 7.0613 97.5583 0
M  V30 168 C 14.3680 8.5478 98.8671 0
M  V30 169 H 13.6784 8.9630 96.8956 0
M  V30 170 H 11.1953 5.1375 89.6930 0
M  V30 171 C 11.5638 4.5549 91.7176 0
M  V30 172 C 12.0837 2.2349 92.0788 0
M  V30 173 H 12.1164 0.9960 90.3330 0
M  V30 174 H 10.4618 0.4938 99.1317 0
M  V30 175 N 11.1803 0.8014 97.1300 0
M  V30 176 C 11.7583 -1.1055 98.5526 0
M  V30 177 C 9.9391 -2.7776 99.2154 0
M  V30 178 H 8.5656 -1.1940 99.7525 0
M  V30 179 H 7.9559 -2.2529 98.5087 0
M  V30 180 H 1.7812 4.3133 98.8874 0
M  V30 181 H 1.1910 5.3721 97.6341 0
M  V30 182 C 1.1759 6.2697 99.6032 0
M  V30 183 H 0.8837 8.3817 100.0139 0
M  V30 184 H 0.6085 7.9407 98.3500 0
M  V30 185 H 13.7548 11.8654 99.7935 0
M  V30 186 H 13.0910 10.4562 100.5764 0
M  V30 187 C 14.7227 10.0060 99.2277 0
M  V30 188 C 12.8675 6.6764 96.3424 0
M  V30 189 H 14.0367 8.0256 99.7666 0
M  V30 190 H 15.2631 8.0248 98.5272 0
M  V30 191 C 11.8866 3.5186 92.6051 0
M  V30 192 H 11.3736 5.5543 92.0799 0
M  V30 193 H 12.3474 1.4116 92.7261 0
M  V30 194 C 11.3361 2.0416 97.3922 0
M  V30 195 H 12.6631 -0.6080 98.9046 0
M  V30 196 H 12.0444 -1.6496 97.6506 0
M  V30 197 C 11.2689 -2.1092 99.6179 0
M  V30 198 H 9.5845 -3.4176 100.0247 0
M  V30 199 H 10.1091 -3.4369 98.3624 0
M  V30 200 H 0.1347 5.9898 99.7709 0
M  V30 201 H 1.6853 6.1206 100.5569 0
M  V30 202 H 15.4516 10.0210 100.0395 0
M  V30 203 H 15.2115 10.4812 98.3753 0
M  V30 204 C 12.4860 5.3234 95.9170 0
M  V30 205 H 13.0745 7.3570 95.5191 0
M  V30 206 C 12.0053 3.7803 94.0751 0
M  V30 207 C 11.7375 3.0476 96.3998 0
M  V30 208 H 11.1706 2.4421 98.3901 0
M  V30 209 H 12.0313 -2.8708 99.7888 0
M  V30 210 H 11.1403 -1.5924 100.5706 0
M  V30 211 C 12.4202 5.0311 94.5503 0
M  V30 212 C 12.1414 4.3172 96.8289 0
M  V30 213 C 11.6813 2.7976 95.0206 0
M  V30 214 H 12.6878 5.7965 93.8359 0
M  V30 215 H 12.1776 4.5398 97.8878 0
M  V30 216 H 11.3401 1.8293 94.6830 0
M  V30 END ATOM
M  V30 BEGIN BOND
M  V30 0 1 2 1
M  V30 1 1 3 1
M  V30 2 1 4 1
M  V30 3 1 5 1
M  V30 4 1 6 2
M  V30 5 1 7 2
M  V30 6 1 8 2
M  V30 7 1 9 5
M  V30 8 1 10 5
M  V30 9 1 11 5
M  V30 10 1 12 6
M  V30 11 1 13 11
M  V30 12 1 13 6
M  V30 13 1 14 6
M  V30 14 1 15 11
M  V30 15 1 16 11
M  V30 16 1 17 13
M  V30 17 1 18 13
M  V30 18 1 19 14
M  V30 19 1 20 18
M  V30 20 1 21 19
M  V30 21 1 22 19
M  V30 22 1 23 20
M  V30 23 1 24 20
M  V30 24 1 25 21
M  V30 25 1 26 21
M  V30 26 1 27 24
M  V30 27 1 28 24
M  V30 28 1 29 25
M  V30 29 1 30 25
M  V30 30 1 31 26
M  V30 31 1 32 26
M  V30 32 1 33 27
M  V30 33 1 34 27
M  V30 34 1 35 28
M  V30 35 1 36 28
M  V30 36 1 37 31
M  V30 37 1 37 29
M  V30 38 1 38 29
M  V30 39 1 39 31
M  V30 40 1 40 35
M  V30 41 1 40 34
M  V30 42 1 41 34
M  V30 43 1 42 35
M  V30 44 1 43 37
M  V30 45 1 44 38
M  V30 46 1 45 38
M  V30 47 1 46 39
M  V30 48 1 47 39
M  V30 49 1 48 40
M  V30 50 1 49 41
M  V30 51 1 50 41
M  V30 52 1 51 42
M  V30 53 1 52 42
M  V30 54 1 53 44
M  V30 55 1 54 44
M  V30 56 1 55 45
M  V30 57 1 56 45
M  V30 58 1 57 46
M  V30 59 1 58 49
M  V30 60 1 59 49
M  V30 61 1 60 50
M  V30 62 1 61 50
M  V30 63 1 62 52
M  V30 64 1 63 55
M  V30 65 1 63 54
M  V30 66 1 64 54
M  V30 67 1 65 55
M  V30 68 1 66 57
M  V30 69 1 67 57
M  V30 70 1 68 57
M  V30 71 1 69 59
M  V30 72 1 69 60
M  V30 73 1 70 59
M  V30 74 1 71 60
M  V30 75 1 72 62
M  V30 76 1 73 62
M  V30 77 1 74 62
M  V30 78 1 75 63
M  V30 79 1 76 66
M  V30 80 1 77 66
M  V30 81 1 78 66
M  V30 82 1 79 67
M  V30 83 1 80 67
M  V30 84 1 81 67
M  V30 85 1 82 69
M  V30 86 1 83 73
M  V30 87 1 84 73
M  V30 88 1 85 73
M  V30 89 1 86 74
M  V30 90 1 87 74
M  V30 91 1 88 74
M  V30 92 1 89 75
M  V30 93 1 90 75
M  V30 94 1 91 77
M  V30 95 1 92 78
M  V30 96 1 93 78
M  V30 97 1 94 79
M  V30 98 1 94 78
M  V30 99 1 95 79
M  V30 100 1 96 79
M  V30 101 1 97 82
M  V30 102 1 98 82
M  V30 103 1 99 85
M  V30 104 1 100 85
M  V30 105 1 101 87
M  V30 106 1 101 85
M  V30 107 1 102 86
M  V30 108 1 103 87
M  V30 109 1 104 87
M  V30 110 1 105 89
M  V30 111 1 106 89
M  V30 112 1 107 90
M  V30 113 1 108 90
M  V30 114 1 109 91
M  V30 115 1 110 91
M  V30 116 1 111 94
M  V30 117 1 112 94
M  V30 118 1 113 97
M  V30 119 1 114 97
M  V30 120 1 115 98
M  V30 121 1 116 98
M  V30 122 1 117 101
M  V30 123 1 118 101
M  V30 124 1 119 102
M  V30 125 1 120 102
M  V30 126 1 121 105
M  V30 127 1 122 108
M  V30 128 1 122 105
M  V30 129 1 123 108
M  V30 130 1 124 109
M  V30 131 1 125 119
M  V30 132 1 125 109
M  V30 133 1 126 113
M  V30 134 1 127 116
M  V30 135 1 127 113
M  V30 136 1 128 116
M  V30 137 1 129 119
M  V30 138 1 130 121
M  V30 139 1 131 121
M  V30 140 1 132 122
M  V30 141 1 133 123
M  V30 142 1 134 123
M  V30 143 1 135 129
M  V30 144 1 135 124
M  V30 145 1 136 124
M  V30 146 1 137 125
M  V30 147 1 138 126
M  V30 148 1 139 126
M  V30 149 1 140 127
M  V30 150 1 141 128
M  V30 151 1 142 128
M  V30 152 1 143 129
M  V30 153 1 144 131
M  V30 154 1 145 134
M  V30 155 1 146 135
M  V30 156 1 147 138
M  V30 157 1 148 142
M  V30 158 1 148 144
M  V30 159 1 149 144
M  V30 160 1 150 144
M  V30 161 1 151 145
M  V30 162 1 152 145
M  V30 163 1 153 145
M  V30 164 1 154 146
M  V30 165 1 155 146
M  V30 166 1 156 147
M  V30 167 1 157 147
M  V30 168 1 158 147
M  V30 169 1 159 148
M  V30 170 1 160 148
M  V30 171 1 161 149
M  V30 172 1 162 149
M  V30 173 1 163 149
M  V30 174 1 164 152
M  V30 175 1 165 152
M  V30 176 1 166 152
M  V30 177 1 167 153
M  V30 178 1 168 153
M  V30 179 1 169 153
M  V30 180 1 170 154
M  V30 181 1 171 154
M  V30 182 1 172 155
M  V30 183 1 173 155
M  V30 184 1 174 156
M  V30 185 1 175 156
M  V30 186 1 176 156
M  V30 187 1 177 157
M  V30 188 1 178 157
M  V30 189 1 179 157
M  V30 190 1 180 160
M  V30 191 1 181 160
M  V30 192 1 182 161
M  V30 193 1 182 160
M  V30 194 1 183 161
M  V30 195 1 184 161
M  V30 196 1 185 166
M  V30 197 1 186 166
M  V30 198 1 187 168
M  V30 199 1 187 166
M  V30 200 1 188 167
M  V30 201 1 189 168
M  V30 202 1 190 168
M  V30 203 1 191 172
M  V30 204 1 191 171
M  V30 205 1 192 171
M  V30 206 1 193 172
M  V30 207 1 194 175
M  V30 208 1 195 176
M  V30 209 1 196 176
M  V30 210 1 197 177
M  V30 211 1 197 176
M  V30 212 1 198 177
M  V30 213 1 199 177
M  V30 214 1 200 182
M  V30 215 1 201 182
M  V30 216 1 202 187
M  V30 217 1 203 187
M  V30 218 1 204 188
M  V30 219 1 205 188
M  V30 220 1 206 191
M  V30 221 1 207 194
M  V30 222 1 208 194
M  V30 223 1 209 197
M  V30 224 1 210 197
M  V30 225 1 211 206
M  V30 226 1 211 204
M  V30 227 1 212 207
M  V30 228 1 212 204
M  V30 229 1 213 207
M  V30 230 1 213 206
M  V30 231 1 214 211
M  V30 232 1 215 212
M  V30 233 1 216 213
M  V30 END BOND
M  V30 END CTAB
M  END

$$$$
