
     RDKit          3D

  0  0  0  0  0  0  0  0  0  0999 V3000
M  V30 BEGIN CTAB
M  V30 COUNTS 228 246 0 0 0
M  V30 BEGIN ATOM
M  V30 1 C 21.1845 6.7101 21.8221 0
M  V30 2 H 20.2021 7.0220 22.1798 0
M  V30 3 H 21.0067 6.1416 20.9074 0
M  V30 4 C 21.8664 5.8057 22.8728 0
M  V30 5 C 22.0374 7.9539 21.4914 0
M  V30 6 N 21.0337 4.6180 23.0826 0
M  V30 7 H 21.9702 6.4168 23.7776 0
M  V30 8 C 23.3121 5.4079 22.4186 0
M  V30 9 H 21.5592 8.5318 20.6991 0
M  V30 10 C 23.4746 7.5800 21.0751 0
M  V30 11 H 22.0728 8.6101 22.3628 0
M  V30 12 C 20.8667 4.2421 24.2929 0
M  V30 13 N 23.9678 4.6342 23.4725 0
M  V30 14 H 23.2063 4.8548 21.4777 0
M  V30 15 C 24.1598 6.6631 22.1108 0
M  V30 16 H 23.4513 7.0778 20.1063 0
M  V30 17 H 24.0671 8.4848 20.9309 0
M  V30 18 H 21.2941 4.7988 25.1246 0
M  V30 19 C 20.1308 3.0367 24.6959 0
M  V30 20 C 24.3573 3.4537 23.1831 0
M  V30 21 H 24.3333 7.2251 23.0304 0
M  V30 22 H 25.1450 6.3678 21.7469 0
M  V30 23 C 20.0782 2.6885 26.0523 0
M  V30 24 C 19.5169 2.1852 23.7633 0
M  V30 25 H 24.3144 3.0636 22.1685 0
M  V30 26 C 24.8751 2.5064 24.1775 0
M  V30 27 H 20.5629 3.3088 26.7946 0
M  V30 28 C 19.4316 1.5249 26.4684 0
M  V30 29 H 19.5754 2.4356 22.7114 0
M  V30 30 C 18.8593 1.0127 24.1599 0
M  V30 31 C 25.5607 1.3567 23.7621 0
M  V30 32 C 24.6336 2.6798 25.5480 0
M  V30 33 C 19.4337 1.1465 27.8737 0
M  V30 34 C 18.8135 0.7036 25.5271 0
M  V30 35 C 18.3087 0.1014 23.1495 0
M  V30 36 C 25.9938 0.3857 24.6794 0
M  V30 37 H 25.7454 1.1964 22.7072 0
M  V30 38 C 25.0380 1.7200 26.4740 0
M  V30 39 H 24.0910 3.5505 25.8920 0
M  V30 40 C 19.4434 0.7939 29.0436 0
M  V30 41 H 18.3260 -0.2044 25.8566 0
M  V30 42 N 17.4775 -0.8291 23.4190 0
M  V30 43 H 18.6798 0.2701 22.1408 0
M  V30 44 C 26.6680 -0.8485 24.2567 0
M  V30 45 C 25.7219 0.5850 26.0396 0
M  V30 46 C 24.7103 1.8862 27.8820 0
M  V30 47 C 19.4272 0.3508 30.4291 0
M  V30 48 C 17.1468 -1.7714 22.3502 0
M  V30 49 N 26.9020 -1.1663 23.0409 0
M  V30 50 H 26.9418 -1.5072 25.0786 0
M  V30 51 H 26.0183 -0.1560 26.7703 0
M  V30 52 C 24.3965 2.0404 29.0527 0
M  V30 53 C 18.5925 -0.7028 30.8071 0
M  V30 54 C 20.2373 0.9826 31.3742 0
M  V30 55 H 17.6885 -1.5752 21.4172 0
M  V30 56 C 15.6393 -1.6616 22.0274 0
M  V30 57 C 17.5206 -3.2277 22.7908 0
M  V30 58 C 27.5143 -2.4780 22.8119 0
M  V30 59 C 24.0099 2.2638 30.4370 0
M  V30 60 H 17.9644 -1.1941 30.0778 0
M  V30 61 C 18.5614 -1.1211 32.1359 0
M  V30 62 C 20.2032 0.5665 32.7039 0
M  V30 63 H 20.8888 1.7952 31.0851 0
M  V30 64 H 15.0560 -1.8041 22.9390 0
M  V30 65 H 15.4059 -0.6564 21.6734 0
M  V30 66 C 15.1997 -2.7006 20.9738 0
M  V30 67 N 18.9632 -3.3573 23.0146 0
M  V30 68 C 17.0905 -4.2575 21.7225 0
M  V30 69 H 16.9298 -3.4546 23.6865 0
M  V30 70 C 26.4450 -3.5282 22.3556 0
M  V30 71 C 28.6292 -2.3266 21.7533 0
M  V30 72 H 27.9999 -2.8823 23.7084 0
M  V30 73 C 23.5072 3.5088 30.8197 0
M  V30 74 C 24.1480 1.2398 31.3757 0
M  V30 75 C 19.3640 -0.4830 33.0825 0
M  V30 76 H 17.9104 -1.9338 32.4256 0
M  V30 77 H 20.8267 1.0612 33.4348 0
M  V30 78 H 15.6567 -2.4576 20.0129 0
M  V30 79 H 14.1215 -2.6387 20.8185 0
M  V30 80 C 15.5907 -4.1372 21.3767 0
M  V30 81 C 19.3591 -3.3272 24.2296 0
M  V30 82 H 17.3082 -5.2685 22.0701 0
M  V30 83 H 17.6818 -4.1158 20.8160 0
M  V30 84 N 25.4543 -3.7207 23.4146 0
M  V30 85 H 26.0119 -3.1518 21.4211 0
M  V30 86 C 27.1085 -4.8857 22.0299 0
M  V30 87 C 29.2802 -3.6822 21.4040 0
M  V30 88 H 29.3919 -1.6334 22.1113 0
M  V30 89 H 28.2171 -1.8803 20.8464 0
M  V30 90 H 23.3990 4.3031 30.0950 0
M  V30 91 C 23.1480 3.7339 32.1470 0
M  V30 92 C 23.7918 1.4663 32.7039 0
M  V30 93 H 24.5320 0.2728 31.0826 0
M  V30 94 C 19.3271 -0.9140 34.4714 0
M  V30 95 H 15.3384 -4.8306 20.5730 0
M  V30 96 H 14.9952 -4.4455 22.2379 0
M  V30 97 H 18.6545 -3.2449 25.0548 0
M  V30 98 C 20.7666 -3.3656 24.6471 0
M  V30 99 C 24.2350 -3.4663 23.1352 0
M  V30 100 H 27.5165 -5.3245 22.9423 0
M  V30 101 H 26.3589 -5.5894 21.6652 0
M  V30 102 C 28.2367 -4.7386 20.9865 0
M  V30 103 H 29.8391 -4.0478 22.2672 0
M  V30 104 H 30.0126 -3.5476 20.6066 0
M  V30 105 C 23.2943 2.7131 33.0872 0
M  V30 106 H 22.7636 4.7006 32.4403 0
M  V30 107 H 23.9049 0.6737 33.4299 0
M  V30 108 C 19.3073 -1.2493 35.6460 0
M  V30 109 C 21.0804 -3.2451 26.0075 0
M  V30 110 C 21.8206 -3.4662 23.7248 0
M  V30 111 H 23.9126 -3.2246 22.1247 0
M  V30 112 C 23.1607 -3.4520 24.1352 0
M  V30 113 H 27.8052 -4.4594 20.0236 0
M  V30 114 H 28.7251 -5.7015 20.8295 0
M  V30 115 C 22.9253 2.9492 34.4742 0
M  V30 116 C 19.3165 -1.6027 37.0578 0
M  V30 117 H 20.2931 -3.1396 26.7422 0
M  V30 118 C 22.4070 -3.2249 26.4373 0
M  V30 119 H 21.5852 -3.5344 22.6701 0
M  V30 120 C 23.4371 -3.3445 25.5060 0
M  V30 121 C 22.6341 3.1259 35.6474 0
M  V30 122 C 18.7034 -0.7669 37.9897 0
M  V30 123 C 19.9758 -2.7535 37.4890 0
M  V30 124 C 22.7183 -3.0397 27.8469 0
M  V30 125 H 24.4637 -3.3139 25.8462 0
M  V30 126 C 22.3159 3.2873 37.0582 0
M  V30 127 C 18.7672 -1.0483 39.3622 0
M  V30 128 H 18.2060 0.1313 37.6481 0
M  V30 129 C 20.0479 -3.0735 38.8512 0
M  V30 130 H 20.4564 -3.3857 36.7540 0
M  V30 131 C 23.0037 -2.8574 29.0209 0
M  V30 132 C 20.9878 3.2897 37.4836 0
M  V30 133 C 23.3421 3.3965 37.9949 0
M  V30 134 C 18.2205 -0.1230 40.3623 0
M  V30 135 C 19.4386 -2.2079 39.7739 0
M  V30 136 C 20.7974 -4.2654 39.2693 0
M  V30 137 C 23.3774 -2.6520 30.4118 0
M  V30 138 C 20.6688 3.3828 38.8449 0
M  V30 139 H 20.2032 3.1926 36.7448 0
M  V30 140 C 23.0607 3.4769 39.3664 0
M  V30 141 H 24.3702 3.3797 37.6575 0
M  V30 142 N 17.3899 0.8051 40.0836 0
M  V30 143 H 18.5932 -0.2799 41.3723 0
M  V30 144 H 19.5115 -2.4370 40.8297 0
M  V30 145 N 20.9780 -4.6160 40.4849 0
M  V30 146 H 21.2216 -4.8346 38.4446 0
M  V30 147 C 24.7009 -2.8542 30.8079 0
M  V30 148 C 22.4141 -2.2622 31.3440 0
M  V30 149 C 19.2601 3.3287 39.2570 0
M  V30 150 C 21.7192 3.4743 39.7724 0
M  V30 151 C 24.1320 3.4851 40.3701 0
M  V30 152 C 17.0547 1.7548 41.1444 0
M  V30 153 C 21.8176 -5.7954 40.7116 0
M  V30 154 H 25.4488 -3.1557 30.0884 0
M  V30 155 C 25.0615 -2.6740 32.1417 0
M  V30 156 C 22.7742 -2.0857 32.6788 0
M  V30 157 H 21.3894 -2.0994 31.0410 0
M  V30 158 N 18.8610 3.3471 40.4709 0
M  V30 159 H 18.5585 3.2461 38.4292 0
M  V30 160 H 21.4800 3.5226 40.8274 0
M  V30 161 N 25.3517 3.7416 40.0952 0
M  V30 162 H 23.8070 3.2379 41.3784 0
M  V30 163 H 17.5981 1.5697 42.0787 0
M  V30 164 C 15.5479 1.6380 41.4687 0
M  V30 165 C 17.4189 3.2094 40.6917 0
M  V30 166 C 23.2597 -5.3819 41.1622 0
M  V30 167 C 21.1385 -6.6880 41.7746 0
M  V30 168 H 21.9269 -6.4187 39.8158 0
M  V30 169 C 24.0966 -2.2936 33.0755 0
M  V30 170 H 26.0862 -2.8360 32.4451 0
M  V30 171 H 22.0254 -1.7898 33.3996 0
M  V30 172 C 26.3394 3.5551 41.1575 0
M  V30 173 H 14.9634 1.7684 40.5560 0
M  V30 174 H 15.3210 0.6346 41.8319 0
M  V30 175 C 15.1011 2.6835 42.5127 0
M  V30 176 C 16.9798 4.2464 41.7496 0
M  V30 177 H 16.8282 3.4233 39.7927 0
M  V30 178 N 23.9158 -4.6231 40.0973 0
M  V30 179 H 23.1482 -4.8135 42.0933 0
M  V30 180 C 24.1135 -6.6269 41.4944 0
M  V30 181 C 21.9982 -7.9203 42.1288 0
M  V30 182 H 20.1594 -7.0123 41.4190 0
M  V30 183 H 20.9536 -6.1062 42.6795 0
M  V30 184 C 24.4707 -2.1107 34.4694 0
M  V30 185 C 27.4177 2.5131 40.7048 0
M  V30 186 H 25.9055 3.1758 42.0904 0
M  V30 187 C 26.9910 4.9182 41.4846 0
M  V30 188 C 15.4808 4.1188 42.0955 0
M  V30 189 H 15.5609 2.4532 43.4754 0
M  V30 190 H 14.0235 2.6148 42.6696 0
M  V30 191 H 17.1904 5.2556 41.3924 0
M  V30 192 H 17.5710 4.1180 42.6581 0
M  V30 193 C 24.3032 -3.4379 40.3701 0
M  V30 194 H 24.2922 -7.2043 40.5855 0
M  V30 195 H 25.0961 -6.3201 41.8554 0
M  V30 196 C 23.4308 -7.5291 42.5444 0
M  V30 197 H 22.0418 -8.5905 41.2684 0
M  V30 198 H 21.5208 -8.4884 42.9286 0
M  V30 199 C 24.7587 -1.9574 35.6469 0
M  V30 200 N 26.8163 1.1955 40.4811 0
M  V30 201 C 28.5339 2.3738 41.7641 0
M  V30 202 H 27.8996 2.9190 39.8071 0
M  V30 203 H 27.3969 5.3606 40.5729 0
M  V30 204 H 26.2350 5.6156 41.8479 0
M  V30 205 C 28.1189 4.7814 42.5294 0
M  V30 206 H 14.8836 4.4138 41.2308 0
M  V30 207 H 15.2228 4.8183 42.8920 0
M  V30 208 H 24.2499 -3.0312 41.3777 0
M  V30 209 C 24.8343 -2.5068 39.3670 0
M  V30 210 H 23.4000 -7.0093 43.5037 0
M  V30 211 H 24.0288 -8.4271 42.7078 0
M  V30 212 C 25.0503 -1.7653 37.0598 0
M  V30 213 C 26.6045 0.8602 39.2662 0
M  V30 214 H 29.3029 1.6869 41.4075 0
M  V30 215 H 28.1257 1.9254 42.6718 0
M  V30 216 C 29.1725 3.7355 42.1117 0
M  V30 217 H 27.6889 4.4973 43.4915 0
M  V30 218 H 28.5979 5.7489 42.6876 0
M  V30 219 C 24.6289 -2.7099 37.9944 0
M  V30 220 C 25.5003 -1.3433 39.7759 0
M  V30 221 C 25.7140 -0.6161 37.4887 0
M  V30 222 H 26.8866 1.5095 38.4398 0
M  V30 223 C 25.9491 -0.3870 38.8508 0
M  V30 224 H 29.9069 3.6085 42.9085 0
M  V30 225 H 29.7270 4.1061 41.2477 0
M  V30 226 H 24.1024 -3.5921 37.6548 0
M  V30 227 H 25.6578 -1.1606 40.8316 0
M  V30 228 H 26.0245 0.1127 36.7516 0
M  V30 END ATOM
M  V30 BEGIN BOND
M  V30 0 1 2 1
M  V30 1 1 3 1
M  V30 2 1 4 1
M  V30 3 1 5 1
M  V30 4 1 6 4
M  V30 5 1 7 4
M  V30 6 1 8 4
M  V30 7 1 9 5
M  V30 8 1 10 5
M  V30 9 1 11 5
M  V30 10 1 12 6
M  V30 11 1 13 8
M  V30 12 1 14 8
M  V30 13 1 15 8
M  V30 14 1 15 10
M  V30 15 1 16 10
M  V30 16 1 17 10
M  V30 17 1 18 12
M  V30 18 1 19 12
M  V30 19 1 20 13
M  V30 20 1 21 15
M  V30 21 1 22 15
M  V30 22 1 23 19
M  V30 23 1 24 19
M  V30 24 1 25 20
M  V30 25 1 26 20
M  V30 26 1 27 23
M  V30 27 1 28 23
M  V30 28 1 29 24
M  V30 29 1 30 24
M  V30 30 1 31 26
M  V30 31 1 32 26
M  V30 32 1 33 28
M  V30 33 1 34 30
M  V30 34 1 34 28
M  V30 35 1 35 30
M  V30 36 1 36 31
M  V30 37 1 37 31
M  V30 38 1 38 32
M  V30 39 1 39 32
M  V30 40 1 40 33
M  V30 41 1 41 34
M  V30 42 1 42 35
M  V30 43 1 43 35
M  V30 44 1 44 36
M  V30 45 1 45 38
M  V30 46 1 45 36
M  V30 47 1 46 38
M  V30 48 1 47 40
M  V30 49 1 48 42
M  V30 50 1 49 44
M  V30 51 1 50 44
M  V30 52 1 51 45
M  V30 53 1 52 46
M  V30 54 1 53 47
M  V30 55 1 54 47
M  V30 56 1 55 48
M  V30 57 1 56 48
M  V30 58 1 57 48
M  V30 59 1 58 49
M  V30 60 1 59 52
M  V30 61 1 60 53
M  V30 62 1 61 53
M  V30 63 1 62 54
M  V30 64 1 63 54
M  V30 65 1 64 56
M  V30 66 1 65 56
M  V30 67 1 66 56
M  V30 68 1 67 57
M  V30 69 1 68 57
M  V30 70 1 69 57
M  V30 71 1 70 58
M  V30 72 1 71 58
M  V30 73 1 72 58
M  V30 74 1 73 59
M  V30 75 1 74 59
M  V30 76 1 75 62
M  V30 77 1 75 61
M  V30 78 1 76 61
M  V30 79 1 77 62
M  V30 80 1 78 66
M  V30 81 1 79 66
M  V30 82 1 80 68
M  V30 83 1 80 66
M  V30 84 1 81 67
M  V30 85 1 82 68
M  V30 86 1 83 68
M  V30 87 1 84 70
M  V30 88 1 85 70
M  V30 89 1 86 70
M  V30 90 1 87 71
M  V30 91 1 88 71
M  V30 92 1 89 71
M  V30 93 1 90 73
M  V30 94 1 91 73
M  V30 95 1 92 74
M  V30 96 1 93 74
M  V30 97 1 94 75
M  V30 98 1 95 80
M  V30 99 1 96 80
M  V30 100 1 97 81
M  V30 101 1 98 81
M  V30 102 1 99 84
M  V30 103 1 100 86
M  V30 104 1 101 86
M  V30 105 1 102 87
M  V30 106 1 102 86
M  V30 107 1 103 87
M  V30 108 1 104 87
M  V30 109 1 105 92
M  V30 110 1 105 91
M  V30 111 1 106 91
M  V30 112 1 107 92
M  V30 113 1 108 94
M  V30 114 1 109 98
M  V30 115 1 110 98
M  V30 116 1 111 99
M  V30 117 1 112 110
M  V30 118 1 112 99
M  V30 119 1 113 102
M  V30 120 1 114 102
M  V30 121 1 115 105
M  V30 122 1 116 108
M  V30 123 1 117 109
M  V30 124 1 118 109
M  V30 125 1 119 110
M  V30 126 1 120 118
M  V30 127 1 120 112
M  V30 128 1 121 115
M  V30 129 1 122 116
M  V30 130 1 123 116
M  V30 131 1 124 118
M  V30 132 1 125 120
M  V30 133 1 126 121
M  V30 134 1 127 122
M  V30 135 1 128 122
M  V30 136 1 129 123
M  V30 137 1 130 123
M  V30 138 1 131 124
M  V30 139 1 132 126
M  V30 140 1 133 126
M  V30 141 1 134 127
M  V30 142 1 135 129
M  V30 143 1 135 127
M  V30 144 1 136 129
M  V30 145 1 137 131
M  V30 146 1 138 132
M  V30 147 1 139 132
M  V30 148 1 140 133
M  V30 149 1 141 133
M  V30 150 1 142 134
M  V30 151 1 143 134
M  V30 152 1 144 135
M  V30 153 1 145 136
M  V30 154 1 146 136
M  V30 155 1 147 137
M  V30 156 1 148 137
M  V30 157 1 149 138
M  V30 158 1 150 140
M  V30 159 1 150 138
M  V30 160 1 151 140
M  V30 161 1 152 142
M  V30 162 1 153 145
M  V30 163 1 154 147
M  V30 164 1 155 147
M  V30 165 1 156 148
M  V30 166 1 157 148
M  V30 167 1 158 149
M  V30 168 1 159 149
M  V30 169 1 160 150
M  V30 170 1 161 151
M  V30 171 1 162 151
M  V30 172 1 163 152
M  V30 173 1 164 152
M  V30 174 1 165 158
M  V30 175 1 165 152
M  V30 176 1 166 153
M  V30 177 1 167 153
M  V30 178 1 168 153
M  V30 179 1 169 156
M  V30 180 1 169 155
M  V30 181 1 170 155
M  V30 182 1 171 156
M  V30 183 1 172 161
M  V30 184 1 173 164
M  V30 185 1 174 164
M  V30 186 1 175 164
M  V30 187 1 176 165
M  V30 188 1 177 165
M  V30 189 1 178 166
M  V30 190 1 179 166
M  V30 191 1 180 166
M  V30 192 1 181 167
M  V30 193 1 182 167
M  V30 194 1 183 167
M  V30 195 1 184 169
M  V30 196 1 185 172
M  V30 197 1 186 172
M  V30 198 1 187 172
M  V30 199 1 188 176
M  V30 200 1 188 175
M  V30 201 1 189 175
M  V30 202 1 190 175
M  V30 203 1 191 176
M  V30 204 1 192 176
M  V30 205 1 193 178
M  V30 206 1 194 180
M  V30 207 1 195 180
M  V30 208 1 196 181
M  V30 209 1 196 180
M  V30 210 1 197 181
M  V30 211 1 198 181
M  V30 212 1 199 184
M  V30 213 1 200 185
M  V30 214 1 201 185
M  V30 215 1 202 185
M  V30 216 1 203 187
M  V30 217 1 204 187
M  V30 218 1 205 187
M  V30 219 1 206 188
M  V30 220 1 207 188
M  V30 221 1 208 193
M  V30 222 1 209 193
M  V30 223 1 210 196
M  V30 224 1 211 196
M  V30 225 1 212 199
M  V30 226 1 213 200
M  V30 227 1 214 201
M  V30 228 1 215 201
M  V30 229 1 216 205
M  V30 230 1 216 201
M  V30 231 1 217 205
M  V30 232 1 218 205
M  V30 233 1 219 212
M  V30 234 1 219 209
M  V30 235 1 220 209
M  V30 236 1 221 212
M  V30 237 1 222 213
M  V30 238 1 223 221
M  V30 239 1 223 220
M  V30 240 1 223 213
M  V30 241 1 224 216
M  V30 242 1 225 216
M  V30 243 1 226 219
M  V30 244 1 227 220
M  V30 245 1 228 221
M  V30 END BOND
M  V30 END CTAB
M  END

$$$$
