
     RDKit          3D

  0  0  0  0  0  0  0  0  0  0999 V3000
M  V30 BEGIN CTAB
M  V30 COUNTS 168 180 0 0 0
M  V30 BEGIN ATOM
M  V30 1 C 7.0799 12.4211 22.6965 0
M  V30 2 C 6.6459 11.3684 21.6575 0
M  V30 3 C 6.8232 13.8538 22.1953 0
M  V30 4 H 6.5366 12.2582 23.6291 0
M  V30 5 H 8.1368 12.2940 22.9359 0
M  V30 6 C 5.1745 11.5469 21.2103 0
M  V30 7 H 7.3042 11.4353 20.7891 0
M  V30 8 H 6.7909 10.3679 22.0675 0
M  V30 9 C 5.3577 14.0501 21.7596 0
M  V30 10 H 7.4853 14.0704 21.3551 0
M  V30 11 H 7.0790 14.5727 22.9752 0
M  V30 12 N 4.9141 10.5783 20.1458 0
M  V30 13 C 4.9042 13.0038 20.7124 0
M  V30 14 H 4.5535 11.3939 22.1009 0
M  V30 15 H 5.2260 15.0568 21.3603 0
M  V30 16 H 4.7153 13.9900 22.6403 0
M  V30 17 C 4.0008 9.7091 20.3458 0
M  V30 18 H 5.5265 13.1576 19.8229 0
M  V30 19 N 3.4774 13.2114 20.4674 0
M  V30 20 C 3.6392 8.6660 19.3751 0
M  V30 21 H 3.4252 9.6836 21.2686 0
M  V30 22 C 3.1166 13.5057 19.2788 0
M  V30 23 C 2.7484 7.6532 19.7498 0
M  V30 24 C 4.1731 8.6346 18.0787 0
M  V30 25 C 1.7218 13.7551 18.8868 0
M  V30 26 H 3.8351 13.5964 18.4669 0
M  V30 27 C 2.3943 6.6197 18.8705 0
M  V30 28 H 2.3281 7.6533 20.7476 0
M  V30 29 C 3.8450 7.6201 17.1716 0
M  V30 30 H 4.8673 9.4114 17.7838 0
M  V30 31 C 0.6498 13.5431 19.7658 0
M  V30 32 C 1.4411 14.2381 17.6032 0
M  V30 33 C 1.4833 5.5349 19.2640 0
M  V30 34 C 2.9489 6.6237 17.5851 0
M  V30 35 C 4.4568 7.6177 15.8348 0
M  V30 36 C -0.6725 13.8107 19.3924 0
M  V30 37 H 0.8599 13.1754 20.7622 0
M  V30 38 C 0.1302 14.5184 17.1909 0
M  V30 39 H 2.2531 14.4153 16.9094 0
M  V30 40 N 1.0542 5.3660 20.4544 0
M  V30 41 H 1.1987 4.8696 18.4516 0
M  V30 42 H 2.6950 5.8326 16.8909 0
M  V30 43 H 5.0360 8.5092 15.6039 0
M  V30 44 N 4.3364 6.6585 15.0010 0
M  V30 45 C -1.7563 13.5993 20.3629 0
M  V30 46 C -0.9124 14.2934 18.0977 0
M  V30 47 C -0.1727 15.0534 15.8555 0
M  V30 48 C 0.1623 4.2334 20.7007 0
M  V30 49 C 5.0146 6.7906 13.7119 0
M  V30 50 N -2.9658 13.9565 20.1649 0
M  V30 51 H -1.4461 13.1103 21.2839 0
M  V30 52 H -1.9321 14.5081 17.8039 0
M  V30 53 H -1.2342 15.1096 15.6236 0
M  V30 54 N 0.7191 15.4315 15.0239 0
M  V30 55 C 0.8475 3.3135 21.7405 0
M  V30 56 C -1.2316 4.7264 21.2083 0
M  V30 57 H -0.0210 3.6207 19.8100 0
M  V30 58 C 3.9818 6.7779 12.5385 0
M  V30 59 C 6.0212 5.6208 13.5888 0
M  V30 60 H 5.5942 7.7164 13.6166 0
M  V30 61 C -3.9342 13.6929 21.2288 0
M  V30 62 C 0.2678 15.9556 13.7352 0
M  V30 63 C -0.0531 2.1412 22.1772 0
M  V30 64 H 1.7826 2.9253 21.3341 0
M  V30 65 H 1.1222 3.8965 22.6218 0
M  V30 66 C -2.1196 3.5402 21.6568 0
M  V30 67 H -1.0485 5.3380 22.0997 0
M  V30 68 N -1.9457 5.4396 20.1498 0
M  V30 69 H 3.4039 5.8509 12.6324 0
M  V30 70 C 4.6918 6.7226 11.1638 0
M  V30 71 N 3.1550 7.9842 12.5626 0
M  V30 72 C 6.7146 5.5800 12.2126 0
M  V30 73 H 5.5047 4.6732 13.7535 0
M  V30 74 H 6.7733 5.6934 14.3758 0
M  V30 75 C -5.0592 12.7300 20.7281 0
M  V30 76 H -3.4903 13.2295 22.1179 0
M  V30 77 C -4.5172 15.0541 21.6806 0
M  V30 78 C 0.8004 15.0719 12.5609 0
M  V30 79 C 0.7749 17.4137 13.6178 0
M  V30 80 H -0.8236 15.9924 13.6372 0
M  V30 81 C -1.4190 2.6340 22.6884 0
M  V30 82 H -0.2020 1.4628 21.3352 0
M  V30 83 H 0.4459 1.5571 22.9519 0
M  V30 84 H -2.3962 2.9397 20.7880 0
M  V30 85 H -3.0560 3.9138 22.0738 0
M  V30 86 C -2.2394 6.6651 20.3541 0
M  V30 87 H 3.9516 6.6415 10.3664 0
M  V30 88 H 5.2223 7.6602 10.9867 0
M  V30 89 C 5.6926 5.5547 11.0617 0
M  V30 90 C 1.8970 7.8372 12.7221 0
M  V30 91 H 7.3630 6.4514 12.1054 0
M  V30 92 H 7.3672 4.7078 12.1505 0
M  V30 93 N -4.5236 11.3921 20.4789 0
M  V30 94 H -5.5045 13.1943 19.8402 0
M  V30 95 C -6.1919 12.5947 21.7749 0
M  V30 96 C -5.6457 14.8986 22.7191 0
M  V30 97 H -4.9052 15.5930 20.8140 0
M  V30 98 H -3.7240 15.6797 22.0926 0
M  V30 99 N 0.1709 13.7520 12.5790 0
M  V30 100 H 1.8920 15.0361 12.6582 0
M  V30 101 C 0.4970 15.7179 11.1870 0
M  V30 102 C 0.4670 18.0379 12.2424 0
M  V30 103 H 1.8532 17.4420 13.7862 0
M  V30 104 H 0.3321 18.0256 14.4051 0
M  V30 105 H -1.2825 3.1824 23.6222 0
M  V30 106 H -2.0564 1.7816 22.9285 0
M  V30 107 C -2.9646 7.5029 19.3879 0
M  V30 108 H -1.9692 7.1737 21.2771 0
M  V30 109 H 5.1502 4.6076 11.0765 0
M  V30 110 H 6.2110 5.5916 10.1024 0
M  V30 111 C 0.9415 8.9540 12.7533 0
M  V30 112 H 1.4448 6.8550 12.8426 0
M  V30 113 C -4.5962 10.9371 19.2883 0
M  V30 114 H -6.9970 11.9775 21.3735 0
M  V30 115 H -5.8180 12.0661 22.6539 0
M  V30 116 C -6.7566 13.9598 22.2149 0
M  V30 117 H -5.2324 14.5071 23.6504 0
M  V30 118 H -6.0655 15.8760 22.9617 0
M  V30 119 C 0.9280 12.7359 12.7340 0
M  V30 120 H 0.9414 15.1207 10.3894 0
M  V30 121 H -0.5796 15.7071 11.0059 0
M  V30 122 C 1.0057 17.1698 11.0910 0
M  V30 123 H -0.6118 18.1619 12.1317 0
M  V30 124 H 0.8942 19.0402 12.1846 0
M  V30 125 C -3.3943 8.7802 19.7669 0
M  V30 126 C -3.2622 7.0597 18.0911 0
M  V30 127 C -0.4327 8.6867 12.7591 0
M  V30 128 C 1.3576 10.2933 12.7587 0
M  V30 129 C -4.1137 9.6064 18.8912 0
M  V30 130 H -5.0334 11.5170 18.4783 0
M  V30 131 H -7.2758 14.4269 21.3760 0
M  V30 132 H -7.5070 13.8184 22.9943 0
M  V30 133 C 0.4391 11.3497 12.7592 0
M  V30 134 H 2.0046 12.8355 12.8548 0
M  V30 135 H 2.0970 17.1755 11.1097 0
M  V30 136 H 0.7172 17.6025 10.1318 0
M  V30 137 H -3.1815 9.1415 20.7651 0
M  V30 138 C -3.9779 7.8540 17.1875 0
M  V30 139 H -2.9382 6.0706 17.7929 0
M  V30 140 C -1.3844 9.7167 12.7595 0
M  V30 141 H -0.7777 7.6605 12.7490 0
M  V30 142 H 2.4188 10.5077 12.7482 0
M  V30 143 C -4.3907 9.1275 17.6052 0
M  V30 144 C -0.9288 11.0404 12.7648 0
M  V30 145 C -4.2896 7.3293 15.8501 0
M  V30 146 C -2.8295 9.4478 12.7346 0
M  V30 147 H -4.9499 9.7451 16.9138 0
M  V30 148 H -1.6451 11.8522 12.7592 0
M  V30 149 H -3.8088 6.3820 15.6154 0
M  V30 150 N -5.0614 7.9165 15.0200 0
M  V30 151 N -3.3319 8.2850 12.5759 0
M  V30 152 H -3.4534 10.3303 12.8589 0
M  V30 153 C -5.2907 7.2673 13.7297 0
M  V30 154 C -4.7900 8.1722 12.5575 0
M  V30 155 C -6.8074 6.9804 13.6116 0
M  V30 156 H -4.7786 6.3030 13.6293 0
M  V30 157 H -5.3035 9.1358 12.6568 0
M  V30 158 C -5.1984 7.5898 11.1824 0
M  V30 159 C -7.1951 6.4054 12.2350 0
M  V30 160 H -7.3695 7.9007 13.7821 0
M  V30 161 H -7.1171 6.2898 14.3974 0
M  V30 162 H -4.9019 8.2742 10.3861 0
M  V30 163 H -4.6524 6.6622 10.9998 0
M  V30 164 C -6.7107 7.3074 11.0855 0
M  V30 165 H -6.7650 5.4085 12.1223 0
M  V30 166 H -8.2770 6.2764 12.1769 0
M  V30 167 H -7.2596 8.2506 11.1061 0
M  V30 168 H -6.9419 6.8437 10.1253 0
M  V30 END ATOM
M  V30 BEGIN BOND
M  V30 0 1 2 1
M  V30 1 1 3 1
M  V30 2 1 4 1
M  V30 3 1 5 1
M  V30 4 1 6 2
M  V30 5 1 7 2
M  V30 6 1 8 2
M  V30 7 1 9 3
M  V30 8 1 10 3
M  V30 9 1 11 3
M  V30 10 1 12 6
M  V30 11 1 13 6
M  V30 12 1 13 9
M  V30 13 1 14 6
M  V30 14 1 15 9
M  V30 15 1 16 9
M  V30 16 1 17 12
M  V30 17 1 18 13
M  V30 18 1 19 13
M  V30 19 1 20 17
M  V30 20 1 21 17
M  V30 21 1 22 19
M  V30 22 1 23 20
M  V30 23 1 24 20
M  V30 24 1 25 22
M  V30 25 1 26 22
M  V30 26 1 27 23
M  V30 27 1 28 23
M  V30 28 1 29 24
M  V30 29 1 30 24
M  V30 30 1 31 25
M  V30 31 1 32 25
M  V30 32 1 33 27
M  V30 33 1 34 29
M  V30 34 1 34 27
M  V30 35 1 35 29
M  V30 36 1 36 31
M  V30 37 1 37 31
M  V30 38 1 38 32
M  V30 39 1 39 32
M  V30 40 1 40 33
M  V30 41 1 41 33
M  V30 42 1 42 34
M  V30 43 1 43 35
M  V30 44 1 44 35
M  V30 45 1 45 36
M  V30 46 1 46 38
M  V30 47 1 46 36
M  V30 48 1 47 38
M  V30 49 1 48 40
M  V30 50 1 49 44
M  V30 51 1 50 45
M  V30 52 1 51 45
M  V30 53 1 52 46
M  V30 54 1 53 47
M  V30 55 1 54 47
M  V30 56 1 55 48
M  V30 57 1 56 48
M  V30 58 1 57 48
M  V30 59 1 58 49
M  V30 60 1 59 49
M  V30 61 1 60 49
M  V30 62 1 61 50
M  V30 63 1 62 54
M  V30 64 1 63 55
M  V30 65 1 64 55
M  V30 66 1 65 55
M  V30 67 1 66 56
M  V30 68 1 67 56
M  V30 69 1 68 56
M  V30 70 1 69 58
M  V30 71 1 70 58
M  V30 72 1 71 58
M  V30 73 1 72 59
M  V30 74 1 73 59
M  V30 75 1 74 59
M  V30 76 1 75 61
M  V30 77 1 76 61
M  V30 78 1 77 61
M  V30 79 1 78 62
M  V30 80 1 79 62
M  V30 81 1 80 62
M  V30 82 1 81 66
M  V30 83 1 81 63
M  V30 84 1 82 63
M  V30 85 1 83 63
M  V30 86 1 84 66
M  V30 87 1 85 66
M  V30 88 1 86 68
M  V30 89 1 87 70
M  V30 90 1 88 70
M  V30 91 1 89 70
M  V30 92 1 89 72
M  V30 93 1 90 71
M  V30 94 1 91 72
M  V30 95 1 92 72
M  V30 96 1 93 75
M  V30 97 1 94 75
M  V30 98 1 95 75
M  V30 99 1 96 77
M  V30 100 1 97 77
M  V30 101 1 98 77
M  V30 102 1 99 78
M  V30 103 1 100 78
M  V30 104 1 101 78
M  V30 105 1 102 79
M  V30 106 1 103 79
M  V30 107 1 104 79
M  V30 108 1 105 81
M  V30 109 1 106 81
M  V30 110 1 107 86
M  V30 111 1 108 86
M  V30 112 1 109 89
M  V30 113 1 110 89
M  V30 114 1 111 90
M  V30 115 1 112 90
M  V30 116 1 113 93
M  V30 117 1 114 95
M  V30 118 1 115 95
M  V30 119 1 116 95
M  V30 120 1 116 96
M  V30 121 1 117 96
M  V30 122 1 118 96
M  V30 123 1 119 99
M  V30 124 1 120 101
M  V30 125 1 121 101
M  V30 126 1 122 101
M  V30 127 1 122 102
M  V30 128 1 123 102
M  V30 129 1 124 102
M  V30 130 1 125 107
M  V30 131 1 126 107
M  V30 132 1 127 111
M  V30 133 1 128 111
M  V30 134 1 129 125
M  V30 135 1 129 113
M  V30 136 1 130 113
M  V30 137 1 131 116
M  V30 138 1 132 116
M  V30 139 1 133 128
M  V30 140 1 133 119
M  V30 141 1 134 119
M  V30 142 1 135 122
M  V30 143 1 136 122
M  V30 144 1 137 125
M  V30 145 1 138 126
M  V30 146 1 139 126
M  V30 147 1 140 127
M  V30 148 1 141 127
M  V30 149 1 142 128
M  V30 150 1 143 138
M  V30 151 1 143 129
M  V30 152 1 144 140
M  V30 153 1 144 133
M  V30 154 1 145 138
M  V30 155 1 146 140
M  V30 156 1 147 143
M  V30 157 1 148 144
M  V30 158 1 149 145
M  V30 159 1 150 145
M  V30 160 1 151 146
M  V30 161 1 152 146
M  V30 162 1 153 150
M  V30 163 1 154 153
M  V30 164 1 154 151
M  V30 165 1 155 153
M  V30 166 1 156 153
M  V30 167 1 157 154
M  V30 168 1 158 154
M  V30 169 1 159 155
M  V30 170 1 160 155
M  V30 171 1 161 155
M  V30 172 1 162 158
M  V30 173 1 163 158
M  V30 174 1 164 159
M  V30 175 1 164 158
M  V30 176 1 165 159
M  V30 177 1 166 159
M  V30 178 1 167 164
M  V30 179 1 168 164
M  V30 END BOND
M  V30 END CTAB
M  END

$$$$
