
     RDKit          3D

  0  0  0  0  0  0  0  0  0  0999 V3000
M  V30 BEGIN CTAB
M  V30 COUNTS 108 114 0 0 0
M  V30 BEGIN ATOM
M  V30 1 C 5.8804 17.7223 11.6837 0
M  V30 2 N 4.9571 17.5081 12.7915 0
M  V30 3 C 6.4230 19.1692 11.6853 0
M  V30 4 H 5.3371 17.5533 10.7527 0
M  V30 5 H 6.7230 17.0228 11.6504 0
M  V30 6 C 5.2643 16.6143 13.6481 0
M  V30 7 N 7.3445 19.3816 12.7948 0
M  V30 8 H 6.9677 19.3399 10.7554 0
M  V30 9 H 5.5804 19.8687 11.6519 0
M  V30 10 H 6.1756 16.0261 13.5622 0
M  V30 11 C 4.4364 16.2888 14.8163 0
M  V30 12 C 7.0360 20.2740 13.6525 0
M  V30 13 C 4.7602 15.1784 15.6048 0
M  V30 14 C 3.3171 17.0547 15.1718 0
M  V30 15 H 6.1249 20.8623 13.5662 0
M  V30 16 C 7.8621 20.5974 14.8226 0
M  V30 17 C 3.9931 14.8216 16.7228 0
M  V30 18 H 5.6197 14.5715 15.3490 0
M  V30 19 C 2.5272 16.7295 16.2809 0
M  V30 20 H 3.0612 17.9142 14.5650 0
M  V30 21 C 8.9808 19.8308 15.1784 0
M  V30 22 C 7.5371 21.7063 15.6127 0
M  V30 23 C 4.3172 13.6519 17.5491 0
M  V30 24 C 2.8828 15.6102 17.0468 0
M  V30 25 C 1.3576 17.5558 16.6052 0
M  V30 26 C 9.7690 20.1539 16.2893 0
M  V30 27 H 9.2375 18.9724 14.5704 0
M  V30 28 C 8.3026 22.0611 16.7325 0
M  V30 29 H 6.6780 22.3137 15.3567 0
M  V30 30 N 5.2098 12.7946 17.2405 0
M  V30 31 H 3.7291 13.5655 18.4604 0
M  V30 32 H 2.2750 15.3535 17.9054 0
M  V30 33 N 0.5000 17.2468 17.4974 0
M  V30 34 H 1.2715 18.4675 16.0177 0
M  V30 35 C 10.9379 19.3267 16.6139 0
M  V30 36 C 9.4123 21.2718 17.0567 0
M  V30 37 C 7.9772 23.2291 17.5606 0
M  V30 38 C 5.4231 11.6853 18.1621 0
M  V30 39 C -0.6091 18.1686 17.7110 0
M  V30 40 N 11.7946 19.6339 17.5076 0
M  V30 41 H 11.0243 18.4158 16.0251 0
M  V30 42 H 10.0189 21.5270 17.9166 0
M  V30 43 N 7.0849 24.0870 17.2524 0
M  V30 44 H 8.5640 23.3139 18.4728 0
M  V30 45 C 6.8700 11.6848 18.7043 0
M  V30 46 H 5.2529 10.7552 17.6176 0
M  V30 47 H 4.7238 11.6516 19.0048 0
M  V30 48 C -0.6100 18.7097 19.1584 0
M  V30 49 H -1.5393 17.6244 17.5400 0
M  V30 50 H -0.6422 19.0119 17.0124 0
M  V30 51 C 12.9030 18.7113 17.7211 0
M  V30 52 C 6.8702 25.1944 18.1759 0
M  V30 53 N 7.0833 12.7923 19.6281 0
M  V30 54 H 7.0403 10.7536 19.2471 0
M  V30 55 H 7.5694 11.6526 17.8616 0
M  V30 56 N 0.4985 19.6318 19.3735 0
M  V30 57 H -1.5406 19.2535 19.3283 0
M  V30 58 H -0.6439 17.8663 19.8570 0
M  V30 59 C 12.9019 18.1677 19.1675 0
M  V30 60 H 13.8336 19.2554 17.5522 0
M  V30 61 H 12.9368 17.8692 17.0210 0
M  V30 62 C 5.4225 25.1937 18.7160 0
M  V30 63 H 7.0413 26.1256 17.6335 0
M  V30 64 H 7.5683 25.2264 19.0197 0
M  V30 65 C 7.9760 13.6501 19.3211 0
M  V30 66 C 1.3551 19.3229 20.2667 0
M  V30 67 N 11.7929 17.2454 19.3794 0
M  V30 68 H 13.8321 17.6233 19.3377 0
M  V30 69 H 12.9350 19.0098 19.8676 0
M  V30 70 N 5.2079 24.0845 19.6373 0
M  V30 71 H 5.2515 26.1238 19.2603 0
M  V30 72 H 4.7244 25.2276 17.8723 0
M  V30 73 H 8.5642 13.5654 18.4097 0
M  V30 74 C 8.3001 14.8183 20.1495 0
M  V30 75 H 1.2686 18.4110 20.8539 0
M  V30 76 C 2.5241 20.1494 20.5927 0
M  V30 77 C 10.9351 17.5527 20.2720 0
M  V30 78 C 4.3161 23.2268 19.3270 0
M  V30 79 C 9.4102 15.6077 19.8269 0
M  V30 80 C 7.5330 15.1730 21.2683 0
M  V30 81 C 3.3121 19.8244 21.7032 0
M  V30 82 C 2.8810 21.2685 19.8271 0
M  V30 83 H 11.0209 18.4635 20.8610 0
M  V30 84 C 9.7656 16.7256 20.5948 0
M  V30 85 H 3.7298 23.3129 18.4145 0
M  V30 86 C 3.9906 22.0572 20.1529 0
M  V30 87 H 10.0180 15.3526 18.9678 0
M  V30 88 C 7.8567 16.2819 22.0588 0
M  V30 89 H 6.6735 14.5655 21.5230 0
M  V30 90 C 4.4308 20.5904 22.0604 0
M  V30 91 H 3.0552 18.9650 22.3098 0
M  V30 92 H 2.2746 21.5251 18.9675 0
M  V30 93 C 8.9759 17.0486 21.7046 0
M  V30 94 C 4.7559 21.7006 21.2723 0
M  V30 95 C 7.0289 16.6052 23.2277 0
M  V30 96 C 5.2568 20.2649 23.2300 0
M  V30 97 H 9.2316 17.9071 22.3130 0
M  V30 98 H 5.6150 22.3075 21.5294 0
M  V30 99 N 7.3360 17.4976 24.0858 0
M  V30 100 H 6.1177 16.0167 23.3126 0
M  V30 101 N 4.9484 19.3708 24.0859 0
M  V30 102 H 6.1677 20.8534 23.3176 0
M  V30 103 C 6.4128 17.7097 25.1940 0
M  V30 104 C 5.8699 19.1564 25.1950 0
M  V30 105 H 6.9561 17.5389 26.1247 0
M  V30 106 H 5.5703 17.0101 25.2260 0
M  V30 107 H 5.3251 19.3253 26.1253 0
M  V30 108 H 6.7123 19.8561 25.2299 0
M  V30 END ATOM
M  V30 BEGIN BOND
M  V30 0 1 2 1
M  V30 1 1 3 1
M  V30 2 1 4 1
M  V30 3 1 5 1
M  V30 4 1 6 2
M  V30 5 1 7 3
M  V30 6 1 8 3
M  V30 7 1 9 3
M  V30 8 1 10 6
M  V30 9 1 11 6
M  V30 10 1 12 7
M  V30 11 1 13 11
M  V30 12 1 14 11
M  V30 13 1 15 12
M  V30 14 1 16 12
M  V30 15 1 17 13
M  V30 16 1 18 13
M  V30 17 1 19 14
M  V30 18 1 20 14
M  V30 19 1 21 16
M  V30 20 1 22 16
M  V30 21 1 23 17
M  V30 22 1 24 17
M  V30 23 1 24 19
M  V30 24 1 25 19
M  V30 25 1 26 21
M  V30 26 1 27 21
M  V30 27 1 28 22
M  V30 28 1 29 22
M  V30 29 1 30 23
M  V30 30 1 31 23
M  V30 31 1 32 24
M  V30 32 1 33 25
M  V30 33 1 34 25
M  V30 34 1 35 26
M  V30 35 1 36 26
M  V30 36 1 36 28
M  V30 37 1 37 28
M  V30 38 1 38 30
M  V30 39 1 39 33
M  V30 40 1 40 35
M  V30 41 1 41 35
M  V30 42 1 42 36
M  V30 43 1 43 37
M  V30 44 1 44 37
M  V30 45 1 45 38
M  V30 46 1 46 38
M  V30 47 1 47 38
M  V30 48 1 48 39
M  V30 49 1 49 39
M  V30 50 1 50 39
M  V30 51 1 51 40
M  V30 52 1 52 43
M  V30 53 1 53 45
M  V30 54 1 54 45
M  V30 55 1 55 45
M  V30 56 1 56 48
M  V30 57 1 57 48
M  V30 58 1 58 48
M  V30 59 1 59 51
M  V30 60 1 60 51
M  V30 61 1 61 51
M  V30 62 1 62 52
M  V30 63 1 63 52
M  V30 64 1 64 52
M  V30 65 1 65 53
M  V30 66 1 66 56
M  V30 67 1 67 59
M  V30 68 1 68 59
M  V30 69 1 69 59
M  V30 70 1 70 62
M  V30 71 1 71 62
M  V30 72 1 72 62
M  V30 73 1 73 65
M  V30 74 1 74 65
M  V30 75 1 75 66
M  V30 76 1 76 66
M  V30 77 1 77 67
M  V30 78 1 78 70
M  V30 79 1 79 74
M  V30 80 1 80 74
M  V30 81 1 81 76
M  V30 82 1 82 76
M  V30 83 1 83 77
M  V30 84 1 84 79
M  V30 85 1 84 77
M  V30 86 1 85 78
M  V30 87 1 86 82
M  V30 88 1 86 78
M  V30 89 1 87 79
M  V30 90 1 88 80
M  V30 91 1 89 80
M  V30 92 1 90 81
M  V30 93 1 91 81
M  V30 94 1 92 82
M  V30 95 1 93 88
M  V30 96 1 93 84
M  V30 97 1 94 90
M  V30 98 1 94 86
M  V30 99 1 95 88
M  V30 100 1 96 90
M  V30 101 1 97 93
M  V30 102 1 98 94
M  V30 103 1 99 95
M  V30 104 1 100 95
M  V30 105 1 101 96
M  V30 106 1 102 96
M  V30 107 1 103 99
M  V30 108 1 104 101
M  V30 109 1 104 103
M  V30 110 1 105 103
M  V30 111 1 106 103
M  V30 112 1 107 104
M  V30 113 1 108 104
M  V30 END BOND
M  V30 END CTAB
M  END

$$$$
