
     RDKit          3D

  0  0  0  0  0  0  0  0  0  0999 V3000
M  V30 BEGIN CTAB
M  V30 COUNTS 135 140 0 0 0
M  V30 BEGIN ATOM
M  V30 1 C 0.8600 3.5400 8.3860 0
M  V30 2 C 1.7220 2.4890 8.0820 0
M  V30 3 C -0.2880 3.7720 7.6500 0
M  V30 4 H 1.0640 4.1060 9.1090 0
M  V30 5 C 1.4100 1.6810 6.9910 0
M  V30 6 C 2.9300 2.2280 8.9550 0
M  V30 7 C -0.5790 2.9830 6.5370 0
M  V30 8 O -1.2030 4.7620 7.9480 0
M  V30 9 C 0.2900 1.9470 6.2160 0
M  V30 10 O 2.2890 0.6390 6.7400 0
M  V30 11 C 2.5090 1.5680 10.2580 0
M  V30 12 H 3.3850 3.0740 9.1480 0
M  V30 13 H 3.5590 1.6450 8.4800 0
M  V30 14 C -1.8220 3.2320 5.7050 0
M  V30 15 C -0.9150 5.6620 9.0060 0
M  V30 16 H 0.1150 1.4160 5.4610 0
M  V30 17 C 2.0500 -0.1860 5.6160 0
M  V30 18 C 2.2040 2.3370 11.3880 0
M  V30 19 C 2.3170 0.1980 10.3270 0
M  V30 20 C -2.9590 2.3110 6.1090 0
M  V30 21 H -1.6110 3.0910 4.7580 0
M  V30 22 H -2.1050 4.1640 5.8170 0
M  V30 23 H -0.1020 6.1730 8.8080 0
M  V30 24 H -0.7780 5.1720 9.8430 0
M  V30 25 C -2.0950 6.5830 9.1290 0
M  V30 26 H 2.1640 0.3290 4.7890 0
M  V30 27 H 1.1340 -0.5340 5.6410 0
M  V30 28 C 3.0300 -1.3100 5.6600 0
M  V30 29 O 2.4580 3.6800 11.2740 0
M  V30 30 C 1.6400 1.7320 12.5120 0
M  V30 31 H 2.5510 -0.3370 9.5900 0
M  V30 32 C 1.7850 -0.4050 11.4680 0
M  V30 33 C -3.7470 2.6190 7.2190 0
M  V30 34 C -3.2410 1.1420 5.4200 0
M  V30 35 H -2.2470 7.0270 8.2790 0
M  V30 36 H -1.9170 7.2460 9.8130 0
M  V30 37 H -2.8820 6.0710 9.3700 0
M  V30 38 H 2.9160 -1.8060 6.4850 0
M  V30 39 H 3.9320 -0.9550 5.6160 0
M  V30 40 H 2.8790 -1.8990 4.9040 0
M  V30 41 C 2.0460 4.5580 12.3190 0
M  V30 42 C 1.3930 0.3710 12.5580 0
M  V30 43 H 1.4230 2.2630 13.2580 0
M  V30 44 O 1.6520 -1.7660 11.6200 0
M  V30 45 H -3.5910 3.4210 7.6850 0
M  V30 46 C -4.7580 1.7660 7.6480 0
M  V30 47 O -2.4410 0.8160 4.3250 0
M  V30 48 C -4.2470 0.2820 5.8560 0
M  V30 49 H 2.5040 4.3330 13.1550 0
M  V30 50 H 1.0800 4.4880 12.4630 0
M  V30 51 C 2.4110 5.9470 11.8800 0
M  V30 52 C 0.6880 -0.2590 13.7430 0
M  V30 53 C 1.6010 -2.5860 10.5250 0
M  V30 54 O -5.5670 2.0330 8.7270 0
M  V30 55 C -5.0260 0.5680 6.9730 0
M  V30 56 C -3.1120 0.5820 3.1050 0
M  V30 57 H -4.4050 -0.5140 5.3810 0
M  V30 58 H 1.9700 6.1460 11.0400 0
M  V30 59 H 3.3730 6.0070 11.7640 0
M  V30 60 H 2.1270 6.5830 12.5540 0
M  V30 61 C -0.6190 -0.9620 13.4110 0
M  V30 62 H 0.5050 0.4400 14.4060 0
M  V30 63 H 1.2920 -0.9080 14.1580 0
M  V30 64 C 1.4070 -3.9940 10.9210 0
M  V30 65 H 2.4340 -2.5030 10.0170 0
M  V30 66 H 0.8620 -2.3070 9.9440 0
M  V30 67 C -5.2830 3.1910 9.4980 0
M  V30 68 C -6.1210 -0.3750 7.4410 0
M  V30 69 H -3.6860 -0.2060 3.2070 0
M  V30 70 H -2.4460 0.3780 2.4140 0
M  V30 71 C -3.9330 1.7090 2.6500 0
M  V30 72 C -1.6160 -0.3240 12.6910 0
M  V30 73 C -0.8610 -2.2810 13.8180 0
M  V30 74 H 0.5290 -4.0990 11.3220 0
M  V30 75 H 2.0880 -4.2450 11.5650 0
M  V30 76 H 1.4760 -4.5630 10.1390 0
M  V30 77 H -5.4750 4.0000 8.9800 0
M  V30 78 H -4.3380 3.2040 9.7550 0
M  V30 79 C -6.1560 3.1390 10.7230 0
M  V30 80 H -6.9340 0.1440 7.6190 0
M  V30 81 H -6.3230 -1.0090 6.7220 0
M  V30 82 C -5.7490 -1.1500 8.6900 0
M  V30 83 H -4.3180 1.5000 1.7840 0
M  V30 84 H -3.3790 2.5030 2.5730 0
M  V30 85 H -4.6430 1.8710 3.2900 0
M  V30 86 O -1.4220 1.0060 12.3750 0
M  V30 87 C -2.7760 -0.9940 12.3310 0
M  V30 88 C -2.0480 -2.9350 13.4890 0
M  V30 89 H -0.2110 -2.7340 14.3230 0
M  V30 90 H -6.0370 3.9520 11.2390 0
M  V30 91 H -5.9070 2.3740 11.2650 0
M  V30 92 H -7.0840 3.0590 10.4560 0
M  V30 93 C -6.2220 -0.7560 9.9380 0
M  V30 94 C -4.9010 -2.2600 8.6230 0
M  V30 95 C -2.1970 1.5430 11.2800 0
M  V30 96 C -3.0070 -2.3080 12.7050 0
M  V30 97 H -3.4240 -0.5440 11.8200 0
M  V30 98 O -2.3640 -4.2190 13.8890 0
M  V30 99 H -6.8280 -0.0400 9.9960 0
M  V30 100 C -5.8100 -1.4070 11.1070 0
M  V30 101 O -4.5700 -2.6890 7.3550 0
M  V30 102 C -4.4640 -2.8820 9.7910 0
M  V30 103 C -1.5810 2.8280 10.8790 0
M  V30 104 H -3.1250 1.6870 11.5620 0
M  V30 105 H -2.1940 0.9180 10.5260 0
M  V30 106 C -4.2890 -3.0310 12.2950 0
M  V30 107 C -1.5880 -4.8550 14.8660 0
M  V30 108 O -6.2090 -1.0110 12.3700 0
M  V30 109 C -4.8940 -2.4420 11.0440 0
M  V30 110 C -3.7350 -3.8510 7.2490 0
M  V30 111 H -3.8720 -3.6100 9.7340 0
M  V30 112 H -2.0840 3.2100 10.1430 0
M  V30 113 H -1.5910 3.4410 11.6300 0
M  V30 114 H -0.6650 2.6750 10.5990 0
M  V30 115 H -4.0900 -3.9790 12.1430 0
M  V30 116 H -4.9390 -2.9740 13.0260 0
M  V30 117 C -2.3100 -6.1250 15.2520 0
M  V30 118 H -1.4820 -4.2730 15.6470 0
M  V30 119 H -0.6990 -5.0630 14.5110 0
M  V30 120 C -7.4280 -0.3260 12.5040 0
M  V30 121 H -4.0870 -4.5690 7.8170 0
M  V30 122 H -2.8270 -3.6400 7.5490 0
M  V30 123 C -3.7140 -4.2950 5.8150 0
M  V30 124 H -2.5370 -6.6230 14.4500 0
M  V30 125 H -1.7350 -6.6660 15.8160 0
M  V30 126 H -3.1200 -5.9020 15.7340 0
M  V30 127 H -8.1390 -0.8150 12.0410 0
M  V30 128 H -7.3570 0.5650 12.1040 0
M  V30 129 C -7.7520 -0.2080 13.9510 0
M  V30 130 H -3.4000 -3.5670 5.2560 0
M  V30 131 H -4.6090 -4.5510 5.5420 0
M  V30 132 H -3.1180 -5.0540 5.7210 0
M  V30 133 H -8.5870 0.2740 14.0570 0
M  V30 134 H -7.8400 -1.0930 14.3360 0
M  V30 135 H -7.0410 0.2730 14.4030 0
M  V30 END ATOM
M  V30 BEGIN BOND
M  V30 0 1 2 1
M  V30 1 1 3 1
M  V30 2 1 4 1
M  V30 3 1 5 2
M  V30 4 1 6 2
M  V30 5 1 7 3
M  V30 6 1 8 3
M  V30 7 1 9 7
M  V30 8 1 9 5
M  V30 9 1 10 5
M  V30 10 1 11 6
M  V30 11 1 12 6
M  V30 12 1 13 6
M  V30 13 1 14 7
M  V30 14 1 15 8
M  V30 15 1 16 9
M  V30 16 1 17 10
M  V30 17 1 18 11
M  V30 18 1 19 11
M  V30 19 1 20 14
M  V30 20 1 21 14
M  V30 21 1 22 14
M  V30 22 1 23 15
M  V30 23 1 24 15
M  V30 24 1 25 15
M  V30 25 1 26 17
M  V30 26 1 27 17
M  V30 27 1 28 17
M  V30 28 1 29 18
M  V30 29 1 30 18
M  V30 30 1 31 19
M  V30 31 1 32 19
M  V30 32 1 33 20
M  V30 33 1 34 20
M  V30 34 1 35 25
M  V30 35 1 36 25
M  V30 36 1 37 25
M  V30 37 1 38 28
M  V30 38 1 39 28
M  V30 39 1 40 28
M  V30 40 1 41 29
M  V30 41 1 42 32
M  V30 42 1 42 30
M  V30 43 1 43 30
M  V30 44 1 44 32
M  V30 45 1 45 33
M  V30 46 1 46 33
M  V30 47 1 47 34
M  V30 48 1 48 34
M  V30 49 1 49 41
M  V30 50 1 50 41
M  V30 51 1 51 41
M  V30 52 1 52 42
M  V30 53 1 53 44
M  V30 54 1 54 46
M  V30 55 1 55 48
M  V30 56 1 55 46
M  V30 57 1 56 47
M  V30 58 1 57 48
M  V30 59 1 58 51
M  V30 60 1 59 51
M  V30 61 1 60 51
M  V30 62 1 61 52
M  V30 63 1 62 52
M  V30 64 1 63 52
M  V30 65 1 64 53
M  V30 66 1 65 53
M  V30 67 1 66 53
M  V30 68 1 67 54
M  V30 69 1 68 55
M  V30 70 1 69 56
M  V30 71 1 70 56
M  V30 72 1 71 56
M  V30 73 1 72 61
M  V30 74 1 73 61
M  V30 75 1 74 64
M  V30 76 1 75 64
M  V30 77 1 76 64
M  V30 78 1 77 67
M  V30 79 1 78 67
M  V30 80 1 79 67
M  V30 81 1 80 68
M  V30 82 1 81 68
M  V30 83 1 82 68
M  V30 84 1 83 71
M  V30 85 1 84 71
M  V30 86 1 85 71
M  V30 87 1 86 72
M  V30 88 1 87 72
M  V30 89 1 88 73
M  V30 90 1 89 73
M  V30 91 1 90 79
M  V30 92 1 91 79
M  V30 93 1 92 79
M  V30 94 1 93 82
M  V30 95 1 94 82
M  V30 96 1 95 86
M  V30 97 1 96 88
M  V30 98 1 96 87
M  V30 99 1 97 87
M  V30 100 1 98 88
M  V30 101 1 99 93
M  V30 102 1 100 93
M  V30 103 1 101 94
M  V30 104 1 102 94
M  V30 105 1 103 95
M  V30 106 1 104 95
M  V30 107 1 105 95
M  V30 108 1 106 96
M  V30 109 1 107 98
M  V30 110 1 108 100
M  V30 111 1 109 100
M  V30 112 1 109 102
M  V30 113 1 109 106
M  V30 114 1 110 101
M  V30 115 1 111 102
M  V30 116 1 112 103
M  V30 117 1 113 103
M  V30 118 1 114 103
M  V30 119 1 115 106
M  V30 120 1 116 106
M  V30 121 1 117 107
M  V30 122 1 118 107
M  V30 123 1 119 107
M  V30 124 1 120 108
M  V30 125 1 121 110
M  V30 126 1 122 110
M  V30 127 1 123 110
M  V30 128 1 124 117
M  V30 129 1 125 117
M  V30 130 1 126 117
M  V30 131 1 127 120
M  V30 132 1 128 120
M  V30 133 1 129 120
M  V30 134 1 130 123
M  V30 135 1 131 123
M  V30 136 1 132 123
M  V30 137 1 133 129
M  V30 138 1 134 129
M  V30 139 1 135 129
M  V30 END BOND
M  V30 END CTAB
M  END

$$$$
