
     RDKit          3D

  0  0  0  0  0  0  0  0  0  0999 V3000
M  V30 BEGIN CTAB
M  V30 COUNTS 162 168 0 0 0
M  V30 BEGIN ATOM
M  V30 1 C 2.8160 10.2410 5.1600 0
M  V30 2 C 2.8330 9.5290 6.3420 0
M  V30 3 C 1.6250 10.6580 4.5770 0
M  V30 4 H 3.6290 10.4490 4.7400 0
M  V30 5 C 1.6370 9.2430 7.0020 0
M  V30 6 O 3.9870 9.0930 6.9580 0
M  V30 7 C 0.4370 10.3170 5.1940 0
M  V30 8 C 1.6630 11.4860 3.3090 0
M  V30 9 C 1.6330 8.5670 8.3580 0
M  V30 10 C 0.4490 9.6370 6.4010 0
M  V30 11 C 5.2240 9.3650 6.2980 0
M  V30 12 O -0.7200 10.7300 4.5580 0
M  V30 13 H 0.8720 12.0650 3.2850 0
M  V30 14 H 2.4540 12.0650 3.3330 0
M  V30 15 C 1.7010 10.6580 2.0420 0
M  V30 16 C 1.6490 7.0530 8.3030 0
M  V30 17 H 0.8340 8.8530 8.8480 0
M  V30 18 H 2.4170 8.8710 8.8620 0
M  V30 19 H -0.3660 9.4370 6.8230 0
M  V30 20 H 5.3500 10.3310 6.2010 0
M  V30 21 H 5.2260 8.9600 5.4060 0
M  V30 22 C 6.3260 8.7830 7.1290 0
M  V30 23 C -1.9570 10.4010 5.1130 0
M  V30 24 C 2.8890 10.3170 1.4240 0
M  V30 25 C 0.5100 10.2410 1.4580 0
M  V30 26 C 0.4730 6.3240 8.2520 0
M  V30 27 C 2.8470 6.3530 8.3300 0
M  V30 28 H 7.1810 8.9800 6.7160 0
M  V30 29 H 6.2120 7.8230 7.1910 0
M  V30 30 H 6.2990 9.1690 8.0190 0
M  V30 31 H -2.0360 10.7850 6.0110 0
M  V30 32 H -2.0460 9.4280 5.1820 0
M  V30 33 C -3.0300 10.9550 4.2180 0
M  V30 34 C 2.8760 9.6370 0.2170 0
M  V30 35 O 4.0450 10.7300 2.0600 0
M  V30 36 C 0.4920 9.5290 0.2760 0
M  V30 37 H -0.3030 10.4490 1.8780 0
M  V30 38 C 0.5010 4.9380 8.2960 0
M  V30 39 O -0.7000 7.0560 8.1920 0
M  V30 40 C 2.8810 4.9650 8.3220 0
M  V30 41 H 3.6560 6.8310 8.3530 0
M  V30 42 H -2.9590 10.5510 3.3400 0
M  V30 43 H -2.9220 11.9150 4.1420 0
M  V30 44 H -3.9010 10.7550 4.5960 0
M  V30 45 C 1.6890 9.2430 -0.3830 0
M  V30 46 H 3.6920 9.4370 -0.2040 0
M  V30 47 C 5.2830 10.4010 1.5050 0
M  V30 48 O -0.6610 9.0930 -0.3390 0
M  V30 49 C 1.7020 4.2430 8.3390 0
M  V30 50 H -0.3080 4.4610 8.2960 0
M  V30 51 C -1.9290 6.3500 8.0710 0
M  V30 52 O 4.0540 4.2380 8.3260 0
M  V30 53 C 1.6930 8.5670 -1.7380 0
M  V30 54 C 6.3550 10.9550 2.4000 0
M  V30 55 H 5.3620 10.7850 0.6080 0
M  V30 56 H 5.3720 9.4280 1.4360 0
M  V30 57 C -1.8990 9.3650 0.3200 0
M  V30 58 C 1.6940 2.7260 8.4080 0
M  V30 59 H -2.0700 5.7820 8.8560 0
M  V30 60 H -1.9150 5.7800 7.2750 0
M  V30 61 C -3.0300 7.3590 7.9600 0
M  V30 62 C 5.2760 4.9040 8.0700 0
M  V30 63 C 1.6760 7.0530 -1.6830 0
M  V30 64 H 0.9090 8.8710 -2.2420 0
M  V30 65 H 2.4910 8.8530 -2.2290 0
M  V30 66 H 6.2840 10.5510 3.2790 0
M  V30 67 H 6.2470 11.9150 2.4770 0
M  V30 68 H 7.2250 10.7550 2.0230 0
M  V30 69 C -3.0010 8.7830 -0.5100 0
M  V30 70 H -2.0250 10.3310 0.4170 0
M  V30 71 H -1.9010 8.9600 1.2120 0
M  V30 72 C 1.6580 2.0640 7.0480 0
M  V30 73 H 2.4950 2.4270 8.8870 0
M  V30 74 H 0.9120 2.4360 8.9230 0
M  V30 75 H -2.9350 7.8520 7.1300 0
M  V30 76 H -2.9800 7.9750 8.7080 0
M  V30 77 H -3.8870 6.9050 7.9710 0
M  V30 78 H 5.4600 5.5550 8.7800 0
M  V30 79 H 5.2240 5.3850 7.2180 0
M  V30 80 C 6.3650 3.8830 8.0160 0
M  V30 81 C 0.4780 6.3530 -1.7100 0
M  V30 82 C 2.8530 6.3240 -1.6330 0
M  V30 83 H -3.8560 8.9800 -0.0970 0
M  V30 84 H -2.8870 7.8230 -0.5720 0
M  V30 85 H -2.9740 9.1690 -1.3990 0
M  V30 86 C 2.8410 1.7950 6.3760 0
M  V30 87 C 0.4630 1.6840 6.4510 0
M  V30 88 H 6.2340 3.3120 7.2440 0
M  V30 89 H 6.3440 3.3460 8.8250 0
M  V30 90 H 7.2230 4.3290 7.9460 0
M  V30 91 C 0.4440 4.9650 -1.7020 0
M  V30 92 H -0.3310 6.8310 -1.7340 0
M  V30 93 C 2.8240 4.9380 -1.6770 0
M  V30 94 O 4.0260 7.0560 -1.5720 0
M  V30 95 C 2.8520 1.1410 5.1570 0
M  V30 96 H 3.6560 2.0630 6.7580 0
M  V30 97 C 0.4740 0.9900 5.2520 0
M  V30 98 O -0.6830 2.0020 7.1430 0
M  V30 99 C 1.6240 4.2430 -1.7200 0
M  V30 100 O -0.7280 4.2380 -1.7070 0
M  V30 101 H 3.6330 4.4610 -1.6770 0
M  V30 102 C 5.2550 6.3500 -1.4510 0
M  V30 103 O 4.0020 0.8540 4.4510 0
M  V30 104 C 1.6590 0.6920 4.5840 0
M  V30 105 H -0.3420 0.7130 4.8790 0
M  V30 106 C -1.9260 1.7170 6.5890 0
M  V30 107 C 1.6320 2.7260 -1.7880 0
M  V30 108 C -1.9510 4.9040 -1.4500 0
M  V30 109 H 5.3960 5.7820 -2.2370 0
M  V30 110 H 5.2400 5.7800 -0.6550 0
M  V30 111 C 6.3560 7.3590 -1.3410 0
M  V30 112 C 5.2320 1.3350 4.9990 0
M  V30 113 C 1.6630 -0.1190 3.3090 0
M  V30 114 H -2.0100 0.7510 6.4380 0
M  V30 115 H -2.0190 2.1720 5.7260 0
M  V30 116 C -2.9900 2.1810 7.5290 0
M  V30 117 C 1.6680 2.0640 -0.4290 0
M  V30 118 H 0.8310 2.4270 -2.2670 0
M  V30 119 H 2.4140 2.4360 -2.3030 0
M  V30 120 H -2.1340 5.5550 -2.1600 0
M  V30 121 H -1.8980 5.3850 -0.5980 0
M  V30 122 C -3.0390 3.8830 -1.3960 0
M  V30 123 H 6.2610 7.8520 -0.5110 0
M  V30 124 H 6.3060 7.9750 -2.0890 0
M  V30 125 H 7.2120 6.9050 -1.3510 0
M  V30 126 H 5.3840 0.9420 5.8840 0
M  V30 127 H 5.2010 2.3110 5.0960 0
M  V30 128 C 6.3280 0.9490 4.0730 0
M  V30 129 C 1.6670 0.6920 2.0340 0
M  V30 130 H 0.8720 -0.7000 3.3060 0
M  V30 131 H 2.4530 -0.7000 3.3120 0
M  V30 132 H -2.9340 3.1440 7.6290 0
M  V30 133 H -2.8650 1.7570 8.3920 0
M  V30 134 H -3.8610 1.9430 7.1740 0
M  V30 135 C 2.8620 1.6840 0.1670 0
M  V30 136 C 0.4850 1.7950 0.2420 0
M  V30 137 H -2.9080 3.3120 -0.6250 0
M  V30 138 H -3.0190 3.3460 -2.2050 0
M  V30 139 H -3.8980 4.3290 -1.3260 0
M  V30 140 H 6.1980 1.3870 3.2180 0
M  V30 141 H 7.1800 1.2210 4.4490 0
M  V30 142 H 6.3220 -0.0140 3.9480 0
M  V30 143 C 2.8510 0.9900 1.3660 0
M  V30 144 C 0.4740 1.1410 1.4620 0
M  V30 145 O 4.0090 2.0020 -0.5240 0
M  V30 146 H -0.3310 2.0630 -0.1390 0
M  V30 147 H 3.6680 0.7130 1.7390 0
M  V30 148 O -0.6760 0.8540 2.1670 0
M  V30 149 C 5.2510 1.7170 0.0290 0
M  V30 150 C -1.9070 1.3350 1.6190 0
M  V30 151 H 5.3360 0.7510 0.1800 0
M  V30 152 H 5.3450 2.1720 0.8920 0
M  V30 153 C 6.3160 2.1810 -0.9090 0
M  V30 154 H -2.0590 0.9420 0.7350 0
M  V30 155 H -1.8760 2.3110 1.5220 0
M  V30 156 C -3.0030 0.9490 2.5450 0
M  V30 157 H 7.1860 1.9430 -0.5550 0
M  V30 158 H 6.2600 3.1440 -1.0100 0
M  V30 159 H 6.1900 1.7570 -1.7720 0
M  V30 160 H -2.9970 -0.0140 2.6700 0
M  V30 161 H -2.8730 1.3870 3.4000 0
M  V30 162 H -3.8550 1.2210 2.1690 0
M  V30 END ATOM
M  V30 BEGIN BOND
M  V30 0 1 2 1
M  V30 1 1 3 1
M  V30 2 1 4 1
M  V30 3 1 5 2
M  V30 4 1 6 2
M  V30 5 1 7 3
M  V30 6 1 8 3
M  V30 7 1 9 5
M  V30 8 1 10 7
M  V30 9 1 10 5
M  V30 10 1 11 6
M  V30 11 1 12 7
M  V30 12 1 13 8
M  V30 13 1 14 8
M  V30 14 1 15 8
M  V30 15 1 16 9
M  V30 16 1 17 9
M  V30 17 1 18 9
M  V30 18 1 19 10
M  V30 19 1 20 11
M  V30 20 1 21 11
M  V30 21 1 22 11
M  V30 22 1 23 12
M  V30 23 1 24 15
M  V30 24 1 25 15
M  V30 25 1 26 16
M  V30 26 1 27 16
M  V30 27 1 28 22
M  V30 28 1 29 22
M  V30 29 1 30 22
M  V30 30 1 31 23
M  V30 31 1 32 23
M  V30 32 1 33 23
M  V30 33 1 34 24
M  V30 34 1 35 24
M  V30 35 1 36 25
M  V30 36 1 37 25
M  V30 37 1 38 26
M  V30 38 1 39 26
M  V30 39 1 40 27
M  V30 40 1 41 27
M  V30 41 1 42 33
M  V30 42 1 43 33
M  V30 43 1 44 33
M  V30 44 1 45 36
M  V30 45 1 45 34
M  V30 46 1 46 34
M  V30 47 1 47 35
M  V30 48 1 48 36
M  V30 49 1 49 40
M  V30 50 1 49 38
M  V30 51 1 50 38
M  V30 52 1 51 39
M  V30 53 1 52 40
M  V30 54 1 53 45
M  V30 55 1 54 47
M  V30 56 1 55 47
M  V30 57 1 56 47
M  V30 58 1 57 48
M  V30 59 1 58 49
M  V30 60 1 59 51
M  V30 61 1 60 51
M  V30 62 1 61 51
M  V30 63 1 62 52
M  V30 64 1 63 53
M  V30 65 1 64 53
M  V30 66 1 65 53
M  V30 67 1 66 54
M  V30 68 1 67 54
M  V30 69 1 68 54
M  V30 70 1 69 57
M  V30 71 1 70 57
M  V30 72 1 71 57
M  V30 73 1 72 58
M  V30 74 1 73 58
M  V30 75 1 74 58
M  V30 76 1 75 61
M  V30 77 1 76 61
M  V30 78 1 77 61
M  V30 79 1 78 62
M  V30 80 1 79 62
M  V30 81 1 80 62
M  V30 82 1 81 63
M  V30 83 1 82 63
M  V30 84 1 83 69
M  V30 85 1 84 69
M  V30 86 1 85 69
M  V30 87 1 86 72
M  V30 88 1 87 72
M  V30 89 1 88 80
M  V30 90 1 89 80
M  V30 91 1 90 80
M  V30 92 1 91 81
M  V30 93 1 92 81
M  V30 94 1 93 82
M  V30 95 1 94 82
M  V30 96 1 95 86
M  V30 97 1 96 86
M  V30 98 1 97 87
M  V30 99 1 98 87
M  V30 100 1 99 93
M  V30 101 1 99 91
M  V30 102 1 100 91
M  V30 103 1 101 93
M  V30 104 1 102 94
M  V30 105 1 103 95
M  V30 106 1 104 97
M  V30 107 1 104 95
M  V30 108 1 105 97
M  V30 109 1 106 98
M  V30 110 1 107 99
M  V30 111 1 108 100
M  V30 112 1 109 102
M  V30 113 1 110 102
M  V30 114 1 111 102
M  V30 115 1 112 103
M  V30 116 1 113 104
M  V30 117 1 114 106
M  V30 118 1 115 106
M  V30 119 1 116 106
M  V30 120 1 117 107
M  V30 121 1 118 107
M  V30 122 1 119 107
M  V30 123 1 120 108
M  V30 124 1 121 108
M  V30 125 1 122 108
M  V30 126 1 123 111
M  V30 127 1 124 111
M  V30 128 1 125 111
M  V30 129 1 126 112
M  V30 130 1 127 112
M  V30 131 1 128 112
M  V30 132 1 129 113
M  V30 133 1 130 113
M  V30 134 1 131 113
M  V30 135 1 132 116
M  V30 136 1 133 116
M  V30 137 1 134 116
M  V30 138 1 135 117
M  V30 139 1 136 117
M  V30 140 1 137 122
M  V30 141 1 138 122
M  V30 142 1 139 122
M  V30 143 1 140 128
M  V30 144 1 141 128
M  V30 145 1 142 128
M  V30 146 1 143 135
M  V30 147 1 143 129
M  V30 148 1 144 136
M  V30 149 1 144 129
M  V30 150 1 145 135
M  V30 151 1 146 136
M  V30 152 1 147 143
M  V30 153 1 148 144
M  V30 154 1 149 145
M  V30 155 1 150 148
M  V30 156 1 151 149
M  V30 157 1 152 149
M  V30 158 1 153 149
M  V30 159 1 154 150
M  V30 160 1 155 150
M  V30 161 1 156 150
M  V30 162 1 157 153
M  V30 163 1 158 153
M  V30 164 1 159 153
M  V30 165 1 160 156
M  V30 166 1 161 156
M  V30 167 1 162 156
M  V30 END BOND
M  V30 END CTAB
M  END

$$$$
