
     RDKit          3D

  0  0  0  0  0  0  0  0  0  0999 V3000
M  V30 BEGIN CTAB
M  V30 COUNTS 168 180 0 0 0
M  V30 BEGIN ATOM
M  V30 1 C 4.3364 11.2154 31.5097 0
M  V30 2 C 3.8518 12.4643 31.0949 0
M  V30 3 C 4.0881 10.7192 32.7950 0
M  V30 4 H 4.9288 10.6316 30.8166 0
M  V30 5 C 4.1319 13.0083 29.7582 0
M  V30 6 C 3.0934 13.2153 32.0008 0
M  V30 7 C 4.6453 9.4172 33.1895 0
M  V30 8 C 3.3242 11.5016 33.6730 0
M  V30 9 N 4.9351 12.4677 28.9263 0
M  V30 10 H 3.5975 13.9270 29.5257 0
M  V30 11 C 2.8228 12.7535 33.2970 0
M  V30 12 H 2.7140 14.1852 31.7050 0
M  V30 13 N 4.6009 8.9577 34.3797 0
M  V30 14 H 5.1125 8.8635 32.3778 0
M  V30 15 H 3.1331 11.1269 34.6706 0
M  V30 16 C 5.1253 13.1314 27.6369 0
M  V30 17 C 2.0531 13.5471 34.2660 0
M  V30 18 C 5.2111 7.6516 34.6263 0
M  V30 19 C 4.6742 12.2022 26.4636 0
M  V30 20 C 6.6233 13.5033 27.5168 0
M  V30 21 H 4.5597 14.0656 27.5394 0
M  V30 22 N 1.6912 14.7547 34.0653 0
M  V30 23 H 1.8130 13.0218 35.1879 0
M  V30 24 C 4.1427 6.6264 35.1273 0
M  V30 25 C 6.3361 7.8485 35.6714 0
M  V30 26 H 5.6801 7.2143 33.7369 0
M  V30 27 N 3.2249 12.0072 26.4845 0
M  V30 28 H 5.2415 11.2688 26.5597 0
M  V30 29 C 5.0463 12.8098 25.0891 0
M  V30 30 C 6.9753 14.1024 26.1409 0
M  V30 31 H 6.8953 14.2084 28.3037 0
M  V30 32 H 7.2365 12.6156 27.6841 0
M  V30 33 C 0.9406 15.4242 35.1270 0
M  V30 34 N 3.1879 6.3116 34.0650 0
M  V30 35 H 3.6757 7.0623 36.0185 0
M  V30 36 C 4.8021 5.2991 35.5745 0
M  V30 37 C 6.9775 6.5165 36.1076 0
M  V30 38 H 7.1044 8.5109 35.2700 0
M  V30 39 H 5.9346 8.3536 36.5522 0
M  V30 40 C 2.7891 10.8177 26.6424 0
M  V30 41 H 4.4485 13.7056 24.9097 0
M  V30 42 H 4.7873 12.1116 24.2918 0
M  V30 43 C 6.5401 13.1772 24.9901 0
M  V30 44 H 8.0481 14.2920 26.0810 0
M  V30 45 H 6.4897 15.0738 26.0314 0
M  V30 46 C -0.4802 15.8387 34.6238 0
M  V30 47 H 0.7945 14.8014 36.0175 0
M  V30 48 C 1.7614 16.6576 35.5762 0
M  V30 49 C 1.9610 6.6013 34.2662 0
M  V30 50 H 4.0462 4.6289 35.9864 0
M  V30 51 H 5.2181 4.7849 34.7058 0
M  V30 52 C 5.9221 5.5154 36.6114 0
M  V30 53 H 7.5209 6.0813 35.2669 0
M  V30 54 H 7.7200 6.6983 36.8861 0
M  V30 55 C 1.3615 10.4677 26.6700 0
M  V30 56 H 3.4621 9.9716 26.7642 0
M  V30 57 H 7.1412 12.2664 25.0074 0
M  V30 58 H 6.7429 13.6554 24.0306 0
M  V30 59 N -1.3075 14.6581 34.3776 0
M  V30 60 C -1.2136 16.7167 35.6670 0
M  V30 61 H -0.3340 16.4624 33.7339 0
M  V30 62 H 2.7183 16.3363 35.9903 0
M  V30 63 H 2.0019 17.2746 34.7082 0
M  V30 64 C 1.0133 17.5206 36.6114 0
M  V30 65 C 0.8884 6.3319 33.2975 0
M  V30 66 H 1.6262 7.0711 35.1886 0
M  V30 67 H 5.4892 5.8807 37.5444 0
M  V30 68 H 6.3968 4.5626 36.8507 0
M  V30 69 C 0.9811 9.1205 26.6739 0
M  V30 70 C 0.3534 11.4425 26.6735 0
M  V30 71 C -1.7283 14.4668 33.1876 0
M  V30 72 C -0.3792 17.9368 36.1041 0
M  V30 73 H -2.1699 17.0526 35.2633 0
M  V30 74 H -1.4532 16.1175 36.5476 0
M  V30 75 H 0.9100 16.9632 37.5442 0
M  V30 76 H 1.6023 18.4069 36.8523 0
M  V30 77 C 1.1522 5.8658 32.0014 0
M  V30 78 C -0.4461 6.5241 33.6742 0
M  V30 79 C -0.3672 8.7347 26.6708 0
M  V30 80 H 1.7419 8.3502 26.6652 0
M  V30 81 C -1.0036 11.0983 26.6702 0
M  V30 82 H 0.6400 12.4865 26.6644 0
M  V30 83 C -2.5779 13.3334 32.7941 0
M  V30 84 H -1.4826 15.1479 32.3757 0
M  V30 85 H -0.2705 18.6242 35.2632 0
M  V30 86 H -0.9085 18.4906 36.8811 0
M  V30 87 C 0.1219 5.5843 31.0964 0
M  V30 88 H 2.1817 5.7089 31.7051 0
M  V30 89 C -1.5063 6.2537 32.7970 0
M  V30 90 H -0.6743 6.8773 34.6719 0
M  V30 91 C -0.7777 7.3234 26.6440 0
M  V30 92 C -1.3437 9.7378 26.6742 0
M  V30 93 C -2.0206 12.1595 26.6429 0
M  V30 94 C -3.1332 13.3001 31.5094 0
M  V30 95 C -2.8727 12.2807 33.6725 0
M  V30 96 C 0.4519 5.0686 29.7598 0
M  V30 97 C -1.2016 5.7899 31.5118 0
M  V30 98 C -2.9122 6.4229 33.1923 0
M  V30 99 N 0.0345 6.3513 26.4856 0
M  V30 100 H -1.8468 7.1635 26.7668 0
M  V30 101 H -2.3912 9.4641 26.6656 0
M  V30 102 N -3.2686 11.9420 26.4852 0
M  V30 103 H -1.6244 13.1654 26.7646 0
M  V30 104 C -3.9730 12.2559 31.0957 0
M  V30 105 H -2.9245 14.1050 30.8160 0
M  V30 106 C -3.7065 11.2205 33.2976 0
M  V30 107 H -2.4517 12.3028 34.6697 0
M  V30 108 N -0.4187 4.6420 28.9292 0
M  V30 109 H 1.5144 5.0721 29.5261 0
M  V30 110 H -2.0039 5.5688 30.8193 0
M  V30 111 N -3.2869 6.6923 34.3826 0
M  V30 112 H -3.6259 6.2947 32.3813 0
M  V30 113 C -0.5209 4.9985 26.4663 0
M  V30 114 C -4.1624 13.0995 26.4649 0
M  V30 115 C -4.5858 12.2265 29.7597 0
M  V30 116 C -4.2432 11.2237 32.0020 0
M  V30 117 C -4.0079 10.1576 34.2675 0
M  V30 118 C 0.0596 4.1444 27.6397 0
M  V30 119 C -4.7228 6.8176 34.6304 0
M  V30 120 C -0.1821 4.3714 25.0920 0
M  V30 121 H -1.6128 4.9737 26.5635 0
M  V30 122 H -3.6378 14.0575 26.5605 0
M  V30 123 C -4.8758 13.1177 25.0911 0
M  V30 124 C -5.1916 13.0254 27.6391 0
M  V30 125 N -4.5205 13.1926 28.9279 0
M  V30 126 H -5.1142 11.3043 29.5277 0
M  V30 127 H -4.8937 10.4101 31.7071 0
M  V30 128 N -4.8720 9.2393 34.0679 0
M  V30 129 H -3.4328 10.2137 35.1893 0
M  V30 130 C -0.3669 2.6609 27.5213 0
M  V30 131 H 1.1514 4.1674 27.5411 0
M  V30 132 C -5.0754 8.2558 35.1311 0
M  V30 133 C -5.1140 5.7454 35.6764 0
M  V30 134 H -5.3370 6.6298 33.7417 0
M  V30 135 H 0.8924 4.4414 24.9115 0
M  V30 136 H -0.6581 4.9441 24.2946 0
M  V30 137 C -0.6104 2.8939 24.9946 0
M  V30 138 H -5.3527 12.1520 24.9122 0
M  V30 139 H -4.1424 13.2425 24.2931 0
M  V30 140 C -5.9411 14.2275 24.9929 0
M  V30 141 C -6.2630 14.1365 27.5200 0
M  V30 142 H -5.7178 12.0684 27.5422 0
M  V30 143 C -0.0253 2.0555 26.1455 0
M  V30 144 H 0.1088 2.0735 28.3082 0
M  V30 145 H -1.4421 2.5736 27.6897 0
M  V30 146 H -4.4631 8.4427 36.0213 0
M  V30 147 C -6.5540 8.3491 35.5803 0
M  V30 148 C -6.5876 5.8568 36.1147 0
M  V30 149 H -4.9257 4.7485 35.2750 0
M  V30 150 H -4.4746 5.8404 36.5563 0
M  V30 151 H -1.6998 2.8284 25.0131 0
M  V30 152 H -0.2985 2.4784 24.0351 0
M  V30 153 H -5.4531 15.2037 25.0096 0
M  V30 154 H -6.4575 14.1638 24.0338 0
M  V30 155 C -6.9590 14.1416 26.1446 0
M  V30 156 H -7.0090 14.0193 28.3074 0
M  V30 157 H -5.8009 15.1115 27.6868 0
M  V30 158 H 1.0586 1.9906 26.0349 0
M  V30 159 H -0.3972 1.0315 26.0868 0
M  V30 160 H -6.7556 9.3391 35.9919 0
M  V30 161 H -7.2084 8.2457 34.7125 0
M  V30 162 C -6.9255 7.2718 36.6183 0
M  V30 163 H -7.2376 5.6037 35.2751 0
M  V30 164 H -6.8006 5.1234 36.8939 0
M  V30 165 H -7.6598 14.9758 26.0853 0
M  V30 166 H -7.5574 13.2353 26.0355 0
M  V30 167 H -6.3912 7.4643 37.5504 0
M  V30 168 H -7.9876 7.3377 36.8591 0
M  V30 END ATOM
M  V30 BEGIN BOND
M  V30 0 1 2 1
M  V30 1 1 3 1
M  V30 2 1 4 1
M  V30 3 1 5 2
M  V30 4 1 6 2
M  V30 5 1 7 3
M  V30 6 1 8 3
M  V30 7 1 9 5
M  V30 8 1 10 5
M  V30 9 1 11 6
M  V30 10 1 11 8
M  V30 11 1 12 6
M  V30 12 1 13 7
M  V30 13 1 14 7
M  V30 14 1 15 8
M  V30 15 1 16 9
M  V30 16 1 17 11
M  V30 17 1 18 13
M  V30 18 1 19 16
M  V30 19 1 20 16
M  V30 20 1 21 16
M  V30 21 1 22 17
M  V30 22 1 23 17
M  V30 23 1 24 18
M  V30 24 1 25 18
M  V30 25 1 26 18
M  V30 26 1 27 19
M  V30 27 1 28 19
M  V30 28 1 29 19
M  V30 29 1 30 20
M  V30 30 1 31 20
M  V30 31 1 32 20
M  V30 32 1 33 22
M  V30 33 1 34 24
M  V30 34 1 35 24
M  V30 35 1 36 24
M  V30 36 1 37 25
M  V30 37 1 38 25
M  V30 38 1 39 25
M  V30 39 1 40 27
M  V30 40 1 41 29
M  V30 41 1 42 29
M  V30 42 1 43 29
M  V30 43 1 43 30
M  V30 44 1 44 30
M  V30 45 1 45 30
M  V30 46 1 46 33
M  V30 47 1 47 33
M  V30 48 1 48 33
M  V30 49 1 49 34
M  V30 50 1 50 36
M  V30 51 1 51 36
M  V30 52 1 52 36
M  V30 53 1 52 37
M  V30 54 1 53 37
M  V30 55 1 54 37
M  V30 56 1 55 40
M  V30 57 1 56 40
M  V30 58 1 57 43
M  V30 59 1 58 43
M  V30 60 1 59 46
M  V30 61 1 60 46
M  V30 62 1 61 46
M  V30 63 1 62 48
M  V30 64 1 63 48
M  V30 65 1 64 48
M  V30 66 1 65 49
M  V30 67 1 66 49
M  V30 68 1 67 52
M  V30 69 1 68 52
M  V30 70 1 69 55
M  V30 71 1 70 55
M  V30 72 1 71 59
M  V30 73 1 72 64
M  V30 74 1 72 60
M  V30 75 1 73 60
M  V30 76 1 74 60
M  V30 77 1 75 64
M  V30 78 1 76 64
M  V30 79 1 77 65
M  V30 80 1 78 65
M  V30 81 1 79 69
M  V30 82 1 80 69
M  V30 83 1 81 70
M  V30 84 1 82 70
M  V30 85 1 83 71
M  V30 86 1 84 71
M  V30 87 1 85 72
M  V30 88 1 86 72
M  V30 89 1 87 77
M  V30 90 1 88 77
M  V30 91 1 89 78
M  V30 92 1 90 78
M  V30 93 1 91 79
M  V30 94 1 92 79
M  V30 95 1 92 81
M  V30 96 1 93 81
M  V30 97 1 94 83
M  V30 98 1 95 83
M  V30 99 1 96 87
M  V30 100 1 97 87
M  V30 101 1 97 89
M  V30 102 1 98 89
M  V30 103 1 99 91
M  V30 104 1 100 91
M  V30 105 1 101 92
M  V30 106 1 102 93
M  V30 107 1 103 93
M  V30 108 1 104 94
M  V30 109 1 105 94
M  V30 110 1 106 95
M  V30 111 1 107 95
M  V30 112 1 108 96
M  V30 113 1 109 96
M  V30 114 1 110 97
M  V30 115 1 111 98
M  V30 116 1 112 98
M  V30 117 1 113 99
M  V30 118 1 114 102
M  V30 119 1 115 104
M  V30 120 1 116 104
M  V30 121 1 116 106
M  V30 122 1 117 106
M  V30 123 1 118 113
M  V30 124 1 118 108
M  V30 125 1 119 111
M  V30 126 1 120 113
M  V30 127 1 121 113
M  V30 128 1 122 114
M  V30 129 1 123 114
M  V30 130 1 124 114
M  V30 131 1 125 124
M  V30 132 1 125 115
M  V30 133 1 126 115
M  V30 134 1 127 116
M  V30 135 1 128 117
M  V30 136 1 129 117
M  V30 137 1 130 118
M  V30 138 1 131 118
M  V30 139 1 132 128
M  V30 140 1 132 119
M  V30 141 1 133 119
M  V30 142 1 134 119
M  V30 143 1 135 120
M  V30 144 1 136 120
M  V30 145 1 137 120
M  V30 146 1 138 123
M  V30 147 1 139 123
M  V30 148 1 140 123
M  V30 149 1 141 124
M  V30 150 1 142 124
M  V30 151 1 143 137
M  V30 152 1 143 130
M  V30 153 1 144 130
M  V30 154 1 145 130
M  V30 155 1 146 132
M  V30 156 1 147 132
M  V30 157 1 148 133
M  V30 158 1 149 133
M  V30 159 1 150 133
M  V30 160 1 151 137
M  V30 161 1 152 137
M  V30 162 1 153 140
M  V30 163 1 154 140
M  V30 164 1 155 140
M  V30 165 1 155 141
M  V30 166 1 156 141
M  V30 167 1 157 141
M  V30 168 1 158 143
M  V30 169 1 159 143
M  V30 170 1 160 147
M  V30 171 1 161 147
M  V30 172 1 162 148
M  V30 173 1 162 147
M  V30 174 1 163 148
M  V30 175 1 164 148
M  V30 176 1 165 155
M  V30 177 1 166 155
M  V30 178 1 167 162
M  V30 179 1 168 162
M  V30 END BOND
M  V30 END CTAB
M  END

$$$$
