
     RDKit          3D

  0  0  0  0  0  0  0  0  0  0999 V3000
M  V30 BEGIN CTAB
M  V30 COUNTS 192 207 0 0 0
M  V30 BEGIN ATOM
M  V30 1 C 6.7830 12.3220 21.8880 0
M  V30 2 C 6.2730 11.4080 20.7900 0
M  V30 3 H 6.1770 13.0720 21.9920 0
M  V30 4 H 6.8070 11.8350 22.7290 0
M  V30 5 C 8.1590 12.8320 21.5660 0
M  V30 6 C 7.2310 10.2580 20.5590 0
M  V30 7 H 5.4030 11.0580 21.0390 0
M  V30 8 H 6.1720 11.9140 19.9710 0
M  V30 9 C 9.1460 11.6900 21.3010 0
M  V30 10 H 8.4830 13.3690 22.3050 0
M  V30 11 H 8.1140 13.4020 20.7840 0
M  V30 12 N 6.7380 9.3940 19.4850 0
M  V30 13 H 7.3050 9.7320 21.3820 0
M  V30 14 C 8.6020 10.7870 20.1880 0
M  V30 15 H 9.2720 11.1720 22.1140 0
M  V30 16 H 10.0060 12.0550 21.0390 0
M  V30 17 C 6.4040 8.2240 19.7750 0
M  V30 18 N 9.5230 9.6790 19.9540 0
M  V30 19 H 8.5240 11.3120 19.3610 0
M  V30 20 C 5.9010 7.2470 18.7960 0
M  V30 21 H 6.4760 7.9560 20.6620 0
M  V30 22 C 9.8340 9.4440 18.7580 0
M  V30 23 C 5.4240 6.0300 19.2190 0
M  V30 24 C 5.9220 7.5280 17.4410 0
M  V30 25 H 9.4970 10.0120 18.1010 0
M  V30 26 C 10.6830 8.3460 18.3350 0
M  V30 27 C 4.9270 5.0790 18.3350 0
M  V30 28 H 5.4330 5.8350 20.1280 0
M  V30 29 C 5.4540 6.6090 16.5300 0
M  V30 30 H 6.2570 8.3410 17.1430 0
M  V30 31 C 11.2590 7.4400 19.2190 0
M  V30 32 C 10.9430 8.1740 16.9830 0
M  V30 33 C 4.9450 5.3900 16.9830 0
M  V30 34 C 4.4000 3.7940 18.7580 0
M  V30 35 C 5.5060 6.8520 15.0970 0
M  V30 36 H 11.0850 7.5290 20.1280 0
M  V30 37 C 12.0740 6.4180 18.7960 0
M  V30 38 C 11.7450 7.1240 16.5300 0
M  V30 39 H 10.5770 8.7680 16.3700 0
M  V30 40 H 4.6140 4.7760 16.3700 0
M  V30 41 N 4.3520 3.4080 19.9540 0
M  V30 42 H 4.0770 3.2180 18.1010 0
M  V30 43 C 5.5670 6.9580 13.9390 0
M  V30 44 C 12.3060 6.2590 17.4410 0
M  V30 45 C 12.6690 5.4940 19.7750 0
M  V30 46 C 11.9290 6.9580 15.0970 0
M  V30 47 C 3.8530 2.0560 20.1880 0
M  V30 48 C 5.7510 7.1240 12.5060 0
M  V30 49 H 12.8430 5.5620 17.1430 0
M  V30 50 N 13.5150 4.6200 19.4850 0
M  V30 51 H 12.4000 5.5650 20.6620 0
M  V30 52 C 11.9900 6.8520 13.9390 0
M  V30 53 C 4.9970 1.1330 20.5590 0
M  V30 54 C 2.7990 2.0760 21.3010 0
M  V30 55 H 3.4370 1.7260 19.3610 0
M  V30 56 C 5.1900 6.2590 11.5950 0
M  V30 57 C 6.5530 8.1740 12.0530 0
M  V30 58 C 14.0160 3.7610 20.5590 0
M  V30 59 C 12.0420 6.6090 12.5060 0
M  V30 60 N 5.9920 1.1380 19.4850 0
M  V30 61 H 5.4150 1.4610 21.3820 0
M  V30 62 C 4.4800 -0.2710 20.7900 0
M  V30 63 C 2.3030 0.6500 21.5660 0
M  V30 64 H 3.1850 2.4440 22.1140 0
M  V30 65 H 2.0530 2.6380 21.0390 0
M  V30 66 C 5.4220 6.4180 10.2400 0
M  V30 67 H 4.6530 5.5620 11.8930 0
M  V30 68 C 6.8130 8.3460 10.7010 0
M  V30 69 H 6.9190 8.7680 12.6660 0
M  V30 70 C 13.7890 2.3090 20.1880 0
M  V30 71 H 13.5240 3.9590 21.3820 0
M  V30 72 C 15.4910 4.0150 20.7900 0
M  V30 73 C 11.5740 7.5280 11.5950 0
M  V30 74 C 12.5510 5.3900 12.0530 0
M  V30 75 C 7.1720 1.4330 19.7750 0
M  V30 76 H 5.2180 -0.8500 21.0390 0
M  V30 77 H 4.0920 -0.6120 19.9710 0
M  V30 78 C 3.4340 -0.2860 21.8880 0
M  V30 79 H 1.6770 0.6620 22.3050 0
M  V30 80 H 1.8330 0.3260 20.7840 0
M  V30 81 C 6.2370 7.4400 9.8170 0
M  V30 82 C 4.8270 5.4940 9.2610 0
M  V30 83 C 7.6620 9.4440 10.2780 0
M  V30 84 N 12.3690 2.0650 19.9540 0
M  V30 85 C 14.2990 1.3860 21.3010 0
M  V30 86 H 14.2830 2.1140 19.3610 0
M  V30 87 H 15.6230 4.9440 21.0390 0
M  V30 88 H 15.9800 3.8500 19.9710 0
M  V30 89 C 16.0270 3.1170 21.8880 0
M  V30 90 C 11.5950 7.2470 10.2400 0
M  V30 91 H 11.2390 8.3410 11.8930 0
M  V30 92 C 12.5690 5.0790 10.7010 0
M  V30 93 H 12.8820 4.7760 12.6660 0
M  V30 94 C 8.2690 1.4860 18.7960 0
M  V30 95 H 7.3680 1.6300 20.6620 0
M  V30 96 H 3.0870 -1.1860 21.9920 0
M  V30 97 H 3.8430 -0.0230 22.7290 0
M  V30 98 H 6.4110 7.5290 8.9080 0
M  V30 99 N 3.9810 4.6200 9.5510 0
M  V30 100 H 5.0960 5.5650 8.3740 0
M  V30 101 N 7.9730 9.6790 9.0820 0
M  V30 102 H 7.9990 10.0120 10.9350 0
M  V30 103 C 12.0100 1.9140 18.7580 0
M  V30 104 C 15.7810 1.6700 21.5660 0
M  V30 105 H 13.7870 1.5360 22.1140 0
M  V30 106 H 14.1850 0.4590 21.0390 0
M  V30 107 H 16.9800 3.2670 21.9920 0
M  V30 108 H 15.5940 3.3390 22.7290 0
M  V30 109 C 11.0920 8.2240 9.2610 0
M  V30 110 C 12.0720 6.0300 9.8170 0
M  V30 111 C 13.0960 3.7940 10.2780 0
M  V30 112 C 9.5620 1.6820 19.2190 0
M  V30 113 C 8.0160 1.3650 17.4410 0
M  V30 114 C 3.4800 3.7610 8.4770 0
M  V30 115 C 8.8940 10.7870 8.8480 0
M  V30 116 C 10.6340 1.7270 18.3350 0
M  V30 117 H 12.6710 1.9210 18.1010 0
M  V30 118 H 16.0840 1.1210 22.3050 0
M  V30 119 H 16.2980 1.4240 20.7840 0
M  V30 120 N 10.7580 9.3940 9.5510 0
M  V30 121 H 11.0200 7.9560 8.3740 0
M  V30 122 H 12.0630 5.8350 8.9080 0
M  V30 123 N 13.1440 3.4080 9.0820 0
M  V30 124 H 13.4190 3.2180 10.9350 0
M  V30 125 H 9.7260 1.7880 20.1280 0
M  V30 126 H 7.1440 1.2490 17.1430 0
M  V30 127 C 9.0450 1.4180 16.5300 0
M  V30 128 H 3.9720 3.9590 7.6540 0
M  V30 129 C 2.0050 4.0150 8.2460 0
M  V30 130 C 3.7070 2.3090 8.8480 0
M  V30 131 C 10.2650 10.2580 8.4770 0
M  V30 132 C 8.3500 11.6900 7.7350 0
M  V30 133 H 8.9720 11.3120 9.6750 0
M  V30 134 C 10.3560 1.5880 16.9830 0
M  V30 135 C 13.6430 2.0560 8.8480 0
M  V30 136 C 8.8090 1.3420 15.0970 0
M  V30 137 H 1.8730 4.9440 7.9970 0
M  V30 138 H 1.5160 3.8500 9.0650 0
M  V30 139 C 1.4690 3.1170 7.1480 0
M  V30 140 N 5.1270 2.0650 9.0820 0
M  V30 141 C 3.1970 1.3860 7.7350 0
M  V30 142 H 3.2130 2.1140 9.6750 0
M  V30 143 H 10.1910 9.7320 7.6540 0
M  V30 144 C 11.2230 11.4080 8.2460 0
M  V30 145 C 9.3370 12.8320 7.4700 0
M  V30 146 H 8.2240 11.1720 6.9220 0
M  V30 147 H 7.4900 12.0550 7.9970 0
M  V30 148 H 11.0530 1.6080 16.3700 0
M  V30 149 C 12.4990 1.1330 8.4770 0
M  V30 150 C 14.6970 2.0760 7.7350 0
M  V30 151 H 14.0590 1.7260 9.6750 0
M  V30 152 C 8.6870 1.3420 13.9390 0
M  V30 153 H 0.5160 3.2670 7.0440 0
M  V30 154 H 1.9020 3.3390 6.3070 0
M  V30 155 C 1.7150 1.6700 7.4700 0
M  V30 156 C 5.4860 1.9140 10.2780 0
M  V30 157 H 3.7090 1.5360 6.9220 0
M  V30 158 H 3.3110 0.4590 7.9970 0
M  V30 159 H 12.0930 11.0580 7.9970 0
M  V30 160 H 11.3240 11.9140 9.0650 0
M  V30 161 C 10.7130 12.3220 7.1480 0
M  V30 162 H 9.0130 13.3690 6.7310 0
M  V30 163 H 9.3820 13.4020 8.2520 0
M  V30 164 N 11.5040 1.1380 9.5510 0
M  V30 165 H 12.0810 1.4610 7.6540 0
M  V30 166 C 13.0160 -0.2710 8.2460 0
M  V30 167 C 15.1930 0.6500 7.4700 0
M  V30 168 H 14.3110 2.4440 6.9220 0
M  V30 169 H 15.4430 2.6380 7.9970 0
M  V30 170 C 8.4510 1.4180 12.5060 0
M  V30 171 H 1.4120 1.1210 6.7310 0
M  V30 172 H 1.1980 1.4240 8.2520 0
M  V30 173 H 4.8250 1.9210 10.9350 0
M  V30 174 C 6.8620 1.7270 10.7010 0
M  V30 175 H 11.3190 13.0720 7.0440 0
M  V30 176 H 10.6890 11.8350 6.3070 0
M  V30 177 C 10.3240 1.4330 9.2610 0
M  V30 178 H 12.2780 -0.8500 7.9970 0
M  V30 179 H 13.4040 -0.6120 9.0650 0
M  V30 180 C 14.0620 -0.2860 7.1480 0
M  V30 181 H 15.8190 0.6620 6.7310 0
M  V30 182 H 15.6630 0.3260 8.2520 0
M  V30 183 C 9.4800 1.3650 11.5950 0
M  V30 184 C 7.1400 1.5880 12.0530 0
M  V30 185 C 7.9340 1.6820 9.8170 0
M  V30 186 C 9.2270 1.4860 10.2400 0
M  V30 187 H 10.1280 1.6300 8.3740 0
M  V30 188 H 14.4090 -1.1860 7.0440 0
M  V30 189 H 13.6530 -0.0230 6.3070 0
M  V30 190 H 10.3520 1.2490 11.8930 0
M  V30 191 H 6.4430 1.6080 12.6660 0
M  V30 192 H 7.7700 1.7880 8.9080 0
M  V30 END ATOM
M  V30 BEGIN BOND
M  V30 0 1 2 1
M  V30 1 1 3 1
M  V30 2 1 4 1
M  V30 3 1 5 1
M  V30 4 1 6 2
M  V30 5 1 7 2
M  V30 6 1 8 2
M  V30 7 1 9 5
M  V30 8 1 10 5
M  V30 9 1 11 5
M  V30 10 1 12 6
M  V30 11 1 13 6
M  V30 12 1 14 6
M  V30 13 1 14 9
M  V30 14 1 15 9
M  V30 15 1 16 9
M  V30 16 1 17 12
M  V30 17 1 18 14
M  V30 18 1 19 14
M  V30 19 1 20 17
M  V30 20 1 21 17
M  V30 21 1 22 18
M  V30 22 1 23 20
M  V30 23 1 24 20
M  V30 24 1 25 22
M  V30 25 1 26 22
M  V30 26 1 27 23
M  V30 27 1 28 23
M  V30 28 1 29 24
M  V30 29 1 30 24
M  V30 30 1 31 26
M  V30 31 1 32 26
M  V30 32 1 33 27
M  V30 33 1 33 29
M  V30 34 1 34 27
M  V30 35 1 35 29
M  V30 36 1 36 31
M  V30 37 1 37 31
M  V30 38 1 38 32
M  V30 39 1 39 32
M  V30 40 1 40 33
M  V30 41 1 41 34
M  V30 42 1 42 34
M  V30 43 1 43 35
M  V30 44 1 44 38
M  V30 45 1 44 37
M  V30 46 1 45 37
M  V30 47 1 46 38
M  V30 48 1 47 41
M  V30 49 1 48 43
M  V30 50 1 49 44
M  V30 51 1 50 45
M  V30 52 1 51 45
M  V30 53 1 52 46
M  V30 54 1 53 47
M  V30 55 1 54 47
M  V30 56 1 55 47
M  V30 57 1 56 48
M  V30 58 1 57 48
M  V30 59 1 58 50
M  V30 60 1 59 52
M  V30 61 1 60 53
M  V30 62 1 61 53
M  V30 63 1 62 53
M  V30 64 1 63 54
M  V30 65 1 64 54
M  V30 66 1 65 54
M  V30 67 1 66 56
M  V30 68 1 67 56
M  V30 69 1 68 57
M  V30 70 1 69 57
M  V30 71 1 70 58
M  V30 72 1 71 58
M  V30 73 1 72 58
M  V30 74 1 73 59
M  V30 75 1 74 59
M  V30 76 1 75 60
M  V30 77 1 76 62
M  V30 78 1 77 62
M  V30 79 1 78 63
M  V30 80 1 78 62
M  V30 81 1 79 63
M  V30 82 1 80 63
M  V30 83 1 81 66
M  V30 84 1 81 68
M  V30 85 1 82 66
M  V30 86 1 83 68
M  V30 87 1 84 70
M  V30 88 1 85 70
M  V30 89 1 86 70
M  V30 90 1 87 72
M  V30 91 1 88 72
M  V30 92 1 89 72
M  V30 93 1 90 73
M  V30 94 1 91 73
M  V30 95 1 92 74
M  V30 96 1 93 74
M  V30 97 1 94 75
M  V30 98 1 95 75
M  V30 99 1 96 78
M  V30 100 1 97 78
M  V30 101 1 98 81
M  V30 102 1 99 82
M  V30 103 1 100 82
M  V30 104 1 101 83
M  V30 105 1 102 83
M  V30 106 1 103 84
M  V30 107 1 104 85
M  V30 108 1 104 89
M  V30 109 1 105 85
M  V30 110 1 106 85
M  V30 111 1 107 89
M  V30 112 1 108 89
M  V30 113 1 109 90
M  V30 114 1 110 92
M  V30 115 1 110 90
M  V30 116 1 111 92
M  V30 117 1 112 94
M  V30 118 1 113 94
M  V30 119 1 114 99
M  V30 120 1 115 101
M  V30 121 1 116 112
M  V30 122 1 116 103
M  V30 123 1 117 103
M  V30 124 1 118 104
M  V30 125 1 119 104
M  V30 126 1 120 109
M  V30 127 1 121 109
M  V30 128 1 122 110
M  V30 129 1 123 111
M  V30 130 1 124 111
M  V30 131 1 125 112
M  V30 132 1 126 113
M  V30 133 1 127 113
M  V30 134 1 128 114
M  V30 135 1 129 114
M  V30 136 1 130 114
M  V30 137 1 131 120
M  V30 138 1 131 115
M  V30 139 1 132 115
M  V30 140 1 133 115
M  V30 141 1 134 127
M  V30 142 1 134 116
M  V30 143 1 135 123
M  V30 144 1 136 127
M  V30 145 1 137 129
M  V30 146 1 138 129
M  V30 147 1 139 129
M  V30 148 1 140 130
M  V30 149 1 141 130
M  V30 150 1 142 130
M  V30 151 1 143 131
M  V30 152 1 144 131
M  V30 153 1 145 132
M  V30 154 1 146 132
M  V30 155 1 147 132
M  V30 156 1 148 134
M  V30 157 1 149 135
M  V30 158 1 150 135
M  V30 159 1 151 135
M  V30 160 1 152 136
M  V30 161 1 153 139
M  V30 162 1 154 139
M  V30 163 1 155 141
M  V30 164 1 155 139
M  V30 165 1 156 140
M  V30 166 1 157 141
M  V30 167 1 158 141
M  V30 168 1 159 144
M  V30 169 1 160 144
M  V30 170 1 161 145
M  V30 171 1 161 144
M  V30 172 1 162 145
M  V30 173 1 163 145
M  V30 174 1 164 149
M  V30 175 1 165 149
M  V30 176 1 166 149
M  V30 177 1 167 150
M  V30 178 1 168 150
M  V30 179 1 169 150
M  V30 180 1 170 152
M  V30 181 1 171 155
M  V30 182 1 172 155
M  V30 183 1 173 156
M  V30 184 1 174 156
M  V30 185 1 175 161
M  V30 186 1 176 161
M  V30 187 1 177 164
M  V30 188 1 178 166
M  V30 189 1 179 166
M  V30 190 1 180 167
M  V30 191 1 180 166
M  V30 192 1 181 167
M  V30 193 1 182 167
M  V30 194 1 183 170
M  V30 195 1 184 174
M  V30 196 1 184 170
M  V30 197 1 185 174
M  V30 198 1 186 185
M  V30 199 1 186 177
M  V30 200 1 186 183
M  V30 201 1 187 177
M  V30 202 1 188 180
M  V30 203 1 189 180
M  V30 204 1 190 183
M  V30 205 1 191 184
M  V30 206 1 192 185
M  V30 END BOND
M  V30 END CTAB
M  END

$$$$
