
     RDKit          3D

  0  0  0  0  0  0  0  0  0  0999 V3000
M  V30 BEGIN CTAB
M  V30 COUNTS 228 246 0 0 0
M  V30 BEGIN ATOM
M  V30 1 C 7.0941 2.7919 21.3415 0
M  V30 2 C 6.6572 1.7386 20.3013 0
M  V30 3 H 6.6364 2.5613 22.3052 0
M  V30 4 H 8.1722 2.7336 21.4989 0
M  V30 5 C 6.7014 4.2220 20.9187 0
M  V30 6 C 5.1495 1.8405 19.9754 0
M  V30 7 H 7.2410 1.8706 19.3884 0
M  V30 8 H 6.8927 0.7388 20.6686 0
M  V30 9 C 5.2011 4.3346 20.5729 0
M  V30 10 H 6.9534 4.9271 21.7122 0
M  V30 11 H 7.2956 4.5188 20.0526 0
M  V30 12 N 4.8245 0.8850 18.9166 0
M  V30 13 H 4.6072 1.6524 20.9097 0
M  V30 14 C 4.7714 3.2902 19.5185 0
M  V30 15 H 4.9810 5.3406 20.2125 0
M  V30 16 H 4.6113 4.2035 21.4820 0
M  V30 17 C 4.0028 -0.0505 19.1972 0
M  V30 18 N 3.3279 3.4133 19.2981 0
M  V30 19 H 5.3597 3.5070 18.6185 0
M  V30 20 C 3.4660 -0.9836 18.1992 0
M  V30 21 H 3.6311 -0.2085 20.2073 0
M  V30 22 C 2.9288 3.3886 18.0843 0
M  V30 23 C 3.5259 -0.7039 16.8262 0
M  V30 24 C 2.8085 -2.1503 18.6132 0
M  V30 25 H 3.6310 3.3124 17.2565 0
M  V30 26 C 1.5197 3.4282 17.6721 0
M  V30 27 C 2.9227 -1.5487 15.8959 0
M  V30 28 H 4.0133 0.1992 16.4828 0
M  V30 29 C 2.2091 -3.0246 17.6924 0
M  V30 30 H 2.7394 -2.3788 19.6695 0
M  V30 31 C 1.2021 3.3306 16.3109 0
M  V30 32 C 0.4681 3.5105 18.5990 0
M  V30 33 C 2.9310 -1.2004 14.4830 0
M  V30 34 C 2.2767 -2.7062 16.3296 0
M  V30 35 C 1.4743 -4.2247 18.1129 0
M  V30 36 H 1.9880 3.2404 15.5725 0
M  V30 37 C -0.1256 3.3152 15.8846 0
M  V30 38 H 0.7065 3.5621 19.6540 0
M  V30 39 C -0.8733 3.5000 18.1923 0
M  V30 40 C 2.9143 -0.8739 13.3057 0
M  V30 41 H 1.8039 -3.3456 15.5958 0
M  V30 42 N 1.2979 -4.5759 19.3289 0
M  V30 43 H 1.0565 -4.8002 17.2892 0
M  V30 44 C -0.4396 3.1502 14.4734 0
M  V30 45 C -1.1535 3.4158 16.8206 0
M  V30 46 C -1.9443 3.4986 19.1962 0
M  V30 47 C 2.8875 -0.4590 11.9117 0
M  V30 48 C 0.4717 -5.7646 19.5567 0
M  V30 49 C -0.7213 2.9733 13.2978 0
M  V30 50 H -2.1811 3.3894 16.4827 0
M  V30 51 N -3.1675 3.7393 18.9224 0
M  V30 52 H -1.6152 3.2583 20.2049 0
M  V30 53 C 2.0283 0.5645 11.5076 0
M  V30 54 C 3.7206 -1.0877 10.9853 0
M  V30 55 C -0.9754 -5.3671 20.0055 0
M  V30 56 C 1.1595 -6.6483 20.6212 0
M  V30 57 H 0.3703 -6.3904 18.6617 0
M  V30 58 C -1.0763 2.7433 11.9062 0
M  V30 59 C -4.1502 3.5430 19.9879 0
M  V30 60 C 2.0041 0.9636 10.1723 0
M  V30 61 H 1.3814 1.0523 12.2229 0
M  V30 62 H 4.3874 -1.8801 11.2947 0
M  V30 63 C 3.6997 -0.6861 9.6513 0
M  V30 64 N -1.6387 -4.6152 18.9401 0
M  V30 65 H -0.8714 -4.7978 20.9370 0
M  V30 66 C -1.8156 -6.6217 20.3364 0
M  V30 67 C 0.3140 -7.8911 20.9732 0
M  V30 68 H 2.1432 -6.9607 20.2677 0
M  V30 69 H 1.3355 -6.0644 21.5265 0
M  V30 70 C -0.9558 3.7801 10.9800 0
M  V30 71 C -1.5347 1.4872 11.5045 0
M  V30 72 C -5.2151 2.4842 19.5428 0
M  V30 73 H -3.7088 3.1734 20.9212 0
M  V30 74 C -4.8203 4.8976 20.3125 0
M  V30 75 H 1.3367 1.7557 9.8633 0
M  V30 76 C 2.8447 0.3411 9.2477 0
M  V30 77 H 4.3515 -1.1698 8.9377 0
M  V30 78 C -2.0356 -3.4329 19.2117 0
M  V30 79 H -1.9875 -7.2002 19.4269 0
M  V30 80 H -2.8017 -6.3257 20.6970 0
M  V30 81 C -1.1241 -7.5174 21.3863 0
M  V30 82 H 0.2801 -8.5611 20.1122 0
M  V30 83 H 0.7966 -8.4541 21.7735 0
M  V30 84 H -0.6018 4.7539 11.2878 0
M  V30 85 C -1.3018 3.5619 9.6481 0
M  V30 86 C -1.8769 1.2675 10.1713 0
M  V30 87 H -1.6279 0.6823 12.2197 0
M  V30 88 N -4.5964 1.1746 19.3200 0
M  V30 89 C -6.3236 2.3316 20.6085 0
M  V30 90 H -5.7072 2.8805 18.6464 0
M  V30 91 H -5.2379 5.3297 19.4012 0
M  V30 92 H -4.0730 5.6080 20.6687 0
M  V30 93 C -5.9400 4.7479 21.3643 0
M  V30 94 C 2.8399 0.7667 7.8567 0
M  V30 95 H -1.9848 -3.0244 20.2187 0
M  V30 96 C -2.5751 -2.5072 18.2082 0
M  V30 97 H -1.1015 -6.9990 22.3465 0
M  V30 98 H -1.7117 -8.4227 21.5467 0
M  V30 99 C -1.7650 2.3076 9.2468 0
M  V30 100 H -1.2141 4.3689 8.9346 0
M  V30 101 H -2.2301 0.2933 9.8638 0
M  V30 102 C -4.3831 0.8396 18.1052 0
M  V30 103 H -7.0844 1.6328 20.2576 0
M  V30 104 H -5.9040 1.8914 21.5149 0
M  V30 105 C -6.9801 3.6847 20.9568 0
M  V30 106 H -5.5003 4.4741 22.3251 0
M  V30 107 H -6.4326 5.7087 21.5216 0
M  V30 108 C 2.8607 1.1060 6.6831 0
M  V30 109 C -3.2543 -1.3510 18.6164 0
M  V30 110 C -2.3661 -2.7080 16.8358 0
M  V30 111 C -2.1372 2.0906 7.8575 0
M  V30 112 C -3.7127 -0.3998 17.6907 0
M  V30 113 H -4.6748 1.4842 17.2783 0
M  V30 114 H -7.7069 3.5487 21.7590 0
M  V30 115 H -7.5461 4.0445 20.0956 0
M  V30 116 C 2.8734 1.4727 5.2749 0
M  V30 117 H -3.4148 -1.1700 19.6718 0
M  V30 118 C -2.7966 -1.7680 15.9008 0
M  V30 119 H -1.8297 -3.5845 16.4967 0
M  V30 120 C -2.4402 1.9376 6.6838 0
M  V30 121 C -3.4735 -0.6263 16.3289 0
M  V30 122 C 2.2422 2.6404 4.8476 0
M  V30 123 C 3.4855 0.6370 4.3423 0
M  V30 124 C -2.5014 -1.9570 14.4881 0
M  V30 125 C -2.7568 1.7622 5.2744 0
M  V30 126 H -3.7916 0.0989 15.5913 0
M  V30 127 C 2.1984 2.9788 3.4885 0
M  V30 128 H 1.7624 3.2722 5.5834 0
M  V30 129 C 3.4480 0.9360 2.9726 0
M  V30 130 H 3.9612 -0.2741 4.6806 0
M  V30 131 C -2.2115 -2.1077 13.3109 0
M  V30 132 C -2.3329 2.7075 4.3420 0
M  V30 133 C -3.4496 0.6304 4.8458 0
M  V30 134 C 1.4794 4.1905 3.0744 0
M  V30 135 C 2.8055 2.1130 2.5647 0
M  V30 136 C 3.9910 0.0106 1.9711 0
M  V30 137 C -1.8381 -2.2902 11.9167 0
M  V30 138 C -2.5638 2.5218 2.9712 0
M  V30 139 H -1.7836 3.5756 4.6817 0
M  V30 140 C -3.7110 0.4193 3.4855 0
M  V30 141 H -3.7611 -0.0993 5.5814 0
M  V30 142 N 1.3179 4.5579 1.8609 0
M  V30 143 H 1.0591 4.7601 3.9009 0
M  V30 144 H 2.7538 2.3562 1.5108 0
M  V30 145 N 4.8122 -0.9260 2.2497 0
M  V30 146 H 3.6232 0.1745 0.9604 0
M  V30 147 C -0.5142 -2.0923 11.5204 0
M  V30 148 C -2.8062 -2.6610 10.9823 0
M  V30 149 C -2.0260 3.4510 1.9702 0
M  V30 150 C -3.2590 1.3756 2.5620 0
M  V30 151 C -4.3948 -0.8120 3.0699 0
M  V30 152 C 0.5050 5.7572 1.6407 0
M  V30 153 C 5.1328 -1.8815 1.1896 0
M  V30 154 H 0.2370 -1.8040 12.2418 0
M  V30 155 C -0.1554 -2.2697 10.1852 0
M  V30 156 C -2.4469 -2.8423 9.6482 0
M  V30 157 H -3.8320 -2.8155 11.2855 0
M  V30 158 N -1.6172 4.6275 2.2494 0
M  V30 159 H -1.9859 3.0505 0.9595 0
M  V30 160 H -3.4361 1.2057 1.5072 0
M  V30 161 N -4.6254 -1.1378 1.8557 0
M  V30 162 H -4.6791 -1.4610 3.8959 0
M  V30 163 C -0.9470 5.3801 1.1891 0
M  V30 164 C 1.2030 6.6406 0.5827 0
M  V30 165 H 0.4112 6.3778 2.5401 0
M  V30 166 C 4.7385 -3.3290 1.6414 0
M  V30 167 H 4.5958 -1.6859 0.2537 0
M  V30 168 C 6.6423 -1.7947 0.8690 0
M  V30 169 C -1.1218 -2.6504 9.2524 0
M  V30 170 H 0.8707 -2.1147 9.8827 0
M  V30 171 H -3.1975 -3.1366 8.9286 0
M  V30 172 C -5.2482 -2.4457 1.6342 0
M  V30 173 H -0.8502 4.8170 0.2532 0
M  V30 174 C -1.7726 6.6471 0.8693 0
M  V30 175 C 0.3719 7.8957 0.2403 0
M  V30 176 H 2.1903 6.9387 0.9383 0
M  V30 177 H 1.3717 6.0610 -0.3268 0
M  V30 178 N 3.2939 -3.4369 1.8635 0
M  V30 179 C 5.1568 -4.3734 0.5825 0
M  V30 180 H 5.3245 -3.5564 2.5402 0
M  V30 181 C 7.0692 -2.8476 -0.1760 0
M  V30 182 H 7.2217 -1.9382 1.7828 0
M  V30 183 H 6.8900 -0.7955 0.5078 0
M  V30 184 C -0.7501 -2.8578 7.8612 0
M  V30 185 C -4.1864 -3.5068 1.1861 0
M  V30 186 C -6.3602 -2.2914 0.5727 0
M  V30 187 H -5.7386 -2.8407 2.5323 0
M  V30 188 H -1.9368 7.2204 1.7836 0
M  V30 189 H -2.7626 6.3657 0.5074 0
M  V30 190 C -1.0710 7.5425 -0.1742 0
M  V30 191 H 0.3469 8.5600 1.1060 0
M  V30 192 H 0.8607 8.4584 -0.5564 0
M  V30 193 C 2.8959 -3.3904 3.0774 0
M  V30 194 H 4.5686 -4.2319 -0.3260 0
M  V30 195 H 4.9257 -5.3785 0.9385 0
M  V30 196 C 6.6586 -4.2757 0.2377 0
M  V30 197 H 6.6165 -2.6059 -1.1393 0
M  V30 198 H 8.1483 -2.8012 -0.3306 0
M  V30 199 C -0.4662 -3.0435 6.6874 0
M  V30 200 N -3.2012 -3.7033 2.2494 0
M  V30 201 H -3.7470 -3.1382 0.2514 0
M  V30 202 C -4.8595 -4.8605 0.8642 0
M  V30 203 C -7.0209 -3.6438 0.2296 0
M  V30 204 H -5.9431 -1.8533 -0.3359 0
M  V30 205 H -7.1180 -1.5906 0.9257 0
M  V30 206 H -1.0552 7.0309 -1.1382 0
M  V30 207 H -1.6477 8.4559 -0.3276 0
M  V30 208 H 3.6001 -3.3103 3.9033 0
M  V30 209 C 1.4872 -3.4054 3.4923 0
M  V30 210 H 6.9027 -4.9786 -0.5602 0
M  V30 211 H 7.2489 -4.5852 1.1021 0
M  V30 212 C -0.1549 -3.2352 5.2785 0
M  V30 213 C -1.9785 -3.4636 1.9724 0
M  V30 214 C -5.9845 -4.7093 -0.1820 0
M  V30 215 H -5.2727 -5.2927 1.7774 0
M  V30 216 H -4.1144 -5.5712 0.5040 0
M  V30 217 H -7.5828 -4.0015 1.0943 0
M  V30 218 H -7.7520 -3.5078 -0.5687 0
M  V30 219 C 1.1722 -3.2754 4.8515 0
M  V30 220 C 0.4339 -3.4936 2.5679 0
M  V30 221 C -1.1846 -3.3428 4.3451 0
M  V30 222 C -0.9067 -3.4588 2.9752 0
M  V30 223 H -1.6506 -3.2288 0.9620 0
M  V30 224 H -5.5492 -4.4370 -1.1453 0
M  V30 225 H -6.4796 -5.6692 -0.3361 0
M  V30 226 H 1.9593 -3.1789 5.5877 0
M  V30 227 H 0.6706 -3.5691 1.5139 0
M  V30 228 H -2.2115 -3.2973 4.6828 0
M  V30 END ATOM
M  V30 BEGIN BOND
M  V30 0 1 2 1
M  V30 1 1 3 1
M  V30 2 1 4 1
M  V30 3 1 5 1
M  V30 4 1 6 2
M  V30 5 1 7 2
M  V30 6 1 8 2
M  V30 7 1 9 5
M  V30 8 1 10 5
M  V30 9 1 11 5
M  V30 10 1 12 6
M  V30 11 1 13 6
M  V30 12 1 14 6
M  V30 13 1 14 9
M  V30 14 1 15 9
M  V30 15 1 16 9
M  V30 16 1 17 12
M  V30 17 1 18 14
M  V30 18 1 19 14
M  V30 19 1 20 17
M  V30 20 1 21 17
M  V30 21 1 22 18
M  V30 22 1 23 20
M  V30 23 1 24 20
M  V30 24 1 25 22
M  V30 25 1 26 22
M  V30 26 1 27 23
M  V30 27 1 28 23
M  V30 28 1 29 24
M  V30 29 1 30 24
M  V30 30 1 31 26
M  V30 31 1 32 26
M  V30 32 1 33 27
M  V30 33 1 34 27
M  V30 34 1 34 29
M  V30 35 1 35 29
M  V30 36 1 36 31
M  V30 37 1 37 31
M  V30 38 1 38 32
M  V30 39 1 39 32
M  V30 40 1 40 33
M  V30 41 1 41 34
M  V30 42 1 42 35
M  V30 43 1 43 35
M  V30 44 1 44 37
M  V30 45 1 45 37
M  V30 46 1 45 39
M  V30 47 1 46 39
M  V30 48 1 47 40
M  V30 49 1 48 42
M  V30 50 1 49 44
M  V30 51 1 50 45
M  V30 52 1 51 46
M  V30 53 1 52 46
M  V30 54 1 53 47
M  V30 55 1 54 47
M  V30 56 1 55 48
M  V30 57 1 56 48
M  V30 58 1 57 48
M  V30 59 1 58 49
M  V30 60 1 59 51
M  V30 61 1 60 53
M  V30 62 1 61 53
M  V30 63 1 62 54
M  V30 64 1 63 54
M  V30 65 1 64 55
M  V30 66 1 65 55
M  V30 67 1 66 55
M  V30 68 1 67 56
M  V30 69 1 68 56
M  V30 70 1 69 56
M  V30 71 1 70 58
M  V30 72 1 71 58
M  V30 73 1 72 59
M  V30 74 1 73 59
M  V30 75 1 74 59
M  V30 76 1 75 60
M  V30 77 1 76 63
M  V30 78 1 76 60
M  V30 79 1 77 63
M  V30 80 1 78 64
M  V30 81 1 79 66
M  V30 82 1 80 66
M  V30 83 1 81 67
M  V30 84 1 81 66
M  V30 85 1 82 67
M  V30 86 1 83 67
M  V30 87 1 84 70
M  V30 88 1 85 70
M  V30 89 1 86 71
M  V30 90 1 87 71
M  V30 91 1 88 72
M  V30 92 1 89 72
M  V30 93 1 90 72
M  V30 94 1 91 74
M  V30 95 1 92 74
M  V30 96 1 93 74
M  V30 97 1 94 76
M  V30 98 1 95 78
M  V30 99 1 96 78
M  V30 100 1 97 81
M  V30 101 1 98 81
M  V30 102 1 99 86
M  V30 103 1 99 85
M  V30 104 1 100 85
M  V30 105 1 101 86
M  V30 106 1 102 88
M  V30 107 1 103 89
M  V30 108 1 104 89
M  V30 109 1 105 93
M  V30 110 1 105 89
M  V30 111 1 106 93
M  V30 112 1 107 93
M  V30 113 1 108 94
M  V30 114 1 109 96
M  V30 115 1 110 96
M  V30 116 1 111 99
M  V30 117 1 112 109
M  V30 118 1 112 102
M  V30 119 1 113 102
M  V30 120 1 114 105
M  V30 121 1 115 105
M  V30 122 1 116 108
M  V30 123 1 117 109
M  V30 124 1 118 110
M  V30 125 1 119 110
M  V30 126 1 120 111
M  V30 127 1 121 118
M  V30 128 1 121 112
M  V30 129 1 122 116
M  V30 130 1 123 116
M  V30 131 1 124 118
M  V30 132 1 125 120
M  V30 133 1 126 121
M  V30 134 1 127 122
M  V30 135 1 128 122
M  V30 136 1 129 123
M  V30 137 1 130 123
M  V30 138 1 131 124
M  V30 139 1 132 125
M  V30 140 1 133 125
M  V30 141 1 134 127
M  V30 142 1 135 129
M  V30 143 1 135 127
M  V30 144 1 136 129
M  V30 145 1 137 131
M  V30 146 1 138 132
M  V30 147 1 139 132
M  V30 148 1 140 133
M  V30 149 1 141 133
M  V30 150 1 142 134
M  V30 151 1 143 134
M  V30 152 1 144 135
M  V30 153 1 145 136
M  V30 154 1 146 136
M  V30 155 1 147 137
M  V30 156 1 148 137
M  V30 157 1 149 138
M  V30 158 1 150 140
M  V30 159 1 150 138
M  V30 160 1 151 140
M  V30 161 1 152 142
M  V30 162 1 153 145
M  V30 163 1 154 147
M  V30 164 1 155 147
M  V30 165 1 156 148
M  V30 166 1 157 148
M  V30 167 1 158 149
M  V30 168 1 159 149
M  V30 169 1 160 150
M  V30 170 1 161 151
M  V30 171 1 162 151
M  V30 172 1 163 158
M  V30 173 1 163 152
M  V30 174 1 164 152
M  V30 175 1 165 152
M  V30 176 1 166 153
M  V30 177 1 167 153
M  V30 178 1 168 153
M  V30 179 1 169 156
M  V30 180 1 169 155
M  V30 181 1 170 155
M  V30 182 1 171 156
M  V30 183 1 172 161
M  V30 184 1 173 163
M  V30 185 1 174 163
M  V30 186 1 175 164
M  V30 187 1 176 164
M  V30 188 1 177 164
M  V30 189 1 178 166
M  V30 190 1 179 166
M  V30 191 1 180 166
M  V30 192 1 181 168
M  V30 193 1 182 168
M  V30 194 1 183 168
M  V30 195 1 184 169
M  V30 196 1 185 172
M  V30 197 1 186 172
M  V30 198 1 187 172
M  V30 199 1 188 174
M  V30 200 1 189 174
M  V30 201 1 190 175
M  V30 202 1 190 174
M  V30 203 1 191 175
M  V30 204 1 192 175
M  V30 205 1 193 178
M  V30 206 1 194 179
M  V30 207 1 195 179
M  V30 208 1 196 181
M  V30 209 1 196 179
M  V30 210 1 197 181
M  V30 211 1 198 181
M  V30 212 1 199 184
M  V30 213 1 200 185
M  V30 214 1 201 185
M  V30 215 1 202 185
M  V30 216 1 203 186
M  V30 217 1 204 186
M  V30 218 1 205 186
M  V30 219 1 206 190
M  V30 220 1 207 190
M  V30 221 1 208 193
M  V30 222 1 209 193
M  V30 223 1 210 196
M  V30 224 1 211 196
M  V30 225 1 212 199
M  V30 226 1 213 200
M  V30 227 1 214 203
M  V30 228 1 214 202
M  V30 229 1 215 202
M  V30 230 1 216 202
M  V30 231 1 217 203
M  V30 232 1 218 203
M  V30 233 1 219 212
M  V30 234 1 219 209
M  V30 235 1 220 209
M  V30 236 1 221 212
M  V30 237 1 222 221
M  V30 238 1 222 220
M  V30 239 1 222 213
M  V30 240 1 223 213
M  V30 241 1 224 214
M  V30 242 1 225 214
M  V30 243 1 226 219
M  V30 244 1 227 220
M  V30 245 1 228 221
M  V30 END BOND
M  V30 END CTAB
M  END

$$$$
