
     RDKit          3D

  0  0  0  0  0  0  0  0  0  0999 V3000
M  V30 BEGIN CTAB
M  V30 COUNTS 204 216 0 0 0
M  V30 BEGIN ATOM
M  V30 1 C 21.3730 5.8140 3.0130 0
M  V30 2 C 22.3060 4.6510 3.0570 0
M  V30 3 H 21.2790 6.1170 2.0970 0
M  V30 4 H 20.4970 5.5350 3.3290 0
M  V30 5 C 21.8570 6.9030 3.8330 0
M  V30 6 C 22.5160 4.1590 4.4800 0
M  V30 7 H 21.9480 3.9310 2.5160 0
M  V30 8 H 23.1610 4.9120 2.6790 0
M  V30 9 H 21.2150 7.6290 3.8010 0
M  V30 10 H 22.6930 7.2270 3.4650 0
M  V30 11 C 22.0840 6.4920 5.3240 0
M  V30 12 N 23.4730 3.0680 4.5050 0
M  V30 13 H 21.6610 3.8360 4.8300 0
M  V30 14 C 23.0190 5.2670 5.3720 0
M  V30 15 H 21.2350 6.2770 5.7400 0
M  V30 16 H 22.4830 7.2320 5.8110 0
M  V30 17 C 23.1770 1.9290 4.9530 0
M  V30 18 N 23.0670 4.7850 6.7330 0
M  V30 19 H 23.9200 5.5330 5.0880 0
M  V30 20 C 24.3000 0.8930 4.9720 0
M  V30 21 C 21.8420 1.4810 5.4990 0
M  V30 22 C 24.0890 4.7190 7.4650 0
M  V30 23 C 24.0550 -0.4550 5.0060 0
M  V30 24 C 25.5940 1.3430 5.0060 0
M  V30 25 H 21.8990 0.5620 5.7720 0
M  V30 26 H 21.6060 2.0260 6.2540 0
M  V30 27 H 21.1720 1.5710 4.8180 0
M  V30 28 C 23.9360 4.0650 8.7880 0
M  V30 29 C 25.3530 5.5400 7.1460 0
M  V30 30 H 23.1780 -0.7640 5.0530 0
M  V30 31 C 25.0900 -1.3500 4.9720 0
M  V30 32 H 25.7640 2.2560 5.0530 0
M  V30 33 C 26.6380 0.4570 4.9720 0
M  V30 34 C 22.7740 3.3870 9.0680 0
M  V30 35 C 24.9220 4.1170 9.7970 0
M  V30 36 H 26.0840 4.9450 6.9560 0
M  V30 37 H 25.5760 6.0970 7.8910 0
M  V30 38 H 25.1900 6.0900 6.3720 0
M  V30 39 C 24.7560 -2.8400 4.9530 0
M  V30 40 C 26.3810 -0.8890 5.0060 0
M  V30 41 C 28.0970 0.9110 4.9530 0
M  V30 42 C 22.5680 2.7610 10.2750 0
M  V30 43 H 22.1070 3.3490 8.4210 0
M  V30 44 H 25.6970 4.6110 9.6530 0
M  V30 45 C 24.7640 3.4520 10.9860 0
M  V30 46 N 23.6200 -3.1540 4.5050 0
M  V30 47 C 25.8110 -3.7730 5.4990 0
M  V30 48 H 27.0870 -1.4930 5.0530 0
M  V30 49 N 28.9350 0.0860 4.5050 0
M  V30 50 C 28.3770 2.2910 5.4990 0
M  V30 51 C 23.5600 2.8030 11.2400 0
M  V30 52 C 21.2890 1.9990 10.6030 0
M  V30 53 C 25.8410 3.4790 12.0310 0
M  V30 54 C 23.1540 -4.5280 4.4800 0
M  V30 55 H 26.5780 -3.2640 5.7720 0
M  V30 56 H 25.4570 -4.2490 6.2540 0
M  V30 57 H 26.0670 -4.3990 4.8180 0
M  V30 58 C 30.3580 0.3690 4.4800 0
M  V30 59 H 27.5520 2.7020 5.7720 0
M  V30 60 H 28.9660 2.2230 6.2540 0
M  V30 61 H 28.7900 2.8270 4.8180 0
M  V30 62 H 23.4210 2.3940 12.0640 0
M  V30 63 C 20.5020 1.4050 9.3940 0
M  V30 64 N 20.9600 1.8850 11.7910 0
M  V30 65 N 26.7270 4.3720 11.9160 0
M  V30 66 C 25.8080 2.4250 13.0910 0
M  V30 67 H 23.8610 -5.1080 4.8300 0
M  V30 68 C 22.8340 -4.9560 3.0570 0
M  V30 69 C 21.9440 -4.6470 5.3720 0
M  V30 70 C 31.0670 -0.6210 5.3720 0
M  V30 71 H 30.5070 1.2710 4.8300 0
M  V30 72 C 30.8890 0.3050 3.0570 0
M  V30 73 H 20.0080 0.6320 9.6820 0
M  V30 74 H 21.1180 1.1500 8.7030 0
M  V30 75 H 19.8920 2.0630 9.0530 0
M  V30 76 C 19.7450 1.1850 12.1930 0
M  V30 77 C 27.8150 4.5010 12.9040 0
M  V30 78 H 26.7080 2.1710 13.3150 0
M  V30 79 H 25.3300 1.6590 12.7670 0
M  V30 80 H 25.3720 2.7720 13.8710 0
M  V30 81 H 22.1800 -4.3460 2.6790 0
M  V30 82 H 23.6370 -4.9060 2.5160 0
M  V30 83 C 22.2930 -6.3450 3.0130 0
M  V30 84 N 22.3370 -4.3640 6.7330 0
M  V30 85 C 21.3510 -6.0690 5.3240 0
M  V30 86 H 21.2620 -3.9990 5.0880 0
M  V30 87 N 30.6250 -0.4220 6.7330 0
M  V30 88 C 32.5940 -0.4240 5.3240 0
M  V30 89 H 30.8460 -1.5340 5.0880 0
M  V30 90 H 30.6880 -0.5670 2.6790 0
M  V30 91 H 30.4450 0.9740 2.5160 0
M  V30 92 C 32.3630 0.5310 3.0130 0
M  V30 93 C 20.2090 -0.1100 12.9040 0
M  V30 94 H 19.1990 0.9720 11.4090 0
M  V30 95 C 18.9760 2.0610 13.1590 0
M  V30 96 C 29.1690 4.2560 12.1930 0
M  V30 97 C 27.7430 5.9080 13.4790 0
M  V30 98 H 27.6920 3.8450 13.6210 0
M  V30 99 H 22.0780 -6.5780 2.0970 0
M  V30 100 H 22.9730 -6.9640 3.3290 0
M  V30 101 C 21.1080 -6.4700 3.8330 0
M  V30 102 C 21.8840 -3.4460 7.4650 0
M  V30 103 H 20.5110 -6.0930 5.8110 0
M  V30 104 H 21.9600 -6.6970 5.7400 0
M  V30 105 C 30.0560 -1.2730 7.4650 0
M  V30 106 C 33.0630 -0.4330 3.8330 0
M  V30 107 H 33.0350 -1.1390 5.8110 0
M  V30 108 H 32.8330 0.4190 5.7400 0
M  V30 109 H 32.6720 0.4610 2.0970 0
M  V30 110 H 32.5590 1.4290 3.3290 0
M  V30 111 N 20.8640 -0.9880 11.9160 0
M  V30 112 C 19.0260 -0.8760 13.4790 0
M  V30 113 H 20.8380 0.1120 13.6210 0
M  V30 114 H 18.6830 2.8620 12.6950 0
M  V30 115 H 19.5660 2.3330 13.8780 0
M  V30 116 C 17.7570 1.3590 13.7550 0
M  V30 117 N 29.1670 2.8530 11.7910 0
M  V30 118 H 29.2570 4.8350 11.4090 0
M  V30 119 C 30.3110 4.4840 13.1590 0
M  V30 120 C 28.9950 6.1410 14.4270 0
M  V30 121 H 26.9210 6.0160 13.9820 0
M  V30 122 H 27.7490 6.5600 12.7600 0
M  V30 123 H 20.8000 -7.3900 3.8010 0
M  V30 124 H 20.4090 -5.9090 3.4650 0
M  V30 125 C 22.5260 -3.2510 8.7880 0
M  V30 126 C 20.5410 -2.7610 7.1460 0
M  V30 127 C 29.5670 -0.8150 8.7880 0
M  V30 128 C 30.1360 -2.7790 7.1460 0
M  V30 129 H 34.0140 -0.2400 3.8010 0
M  V30 130 H 32.9260 -1.3190 3.4650 0
M  V30 131 C 22.0810 -1.3080 12.0310 0
M  V30 132 H 19.3450 -1.6420 13.9820 0
M  V30 133 H 18.4590 -1.1960 12.7600 0
M  V30 134 C 18.1990 0.0920 14.4270 0
M  V30 135 H 17.3230 1.9420 14.3970 0
M  V30 136 H 17.1200 1.1520 13.0520 0
M  V30 137 C 29.1010 2.5110 10.6030 0
M  V30 138 H 31.1520 4.3370 12.6950 0
M  V30 139 H 30.2520 3.8360 13.8780 0
M  V30 140 C 30.3130 5.8910 13.7550 0
M  V30 141 H 28.9770 7.0540 14.7560 0
M  V30 142 H 28.9190 5.5530 15.2000 0
M  V30 143 C 21.9880 -2.4230 9.7970 0
M  V30 144 C 23.6950 -3.9180 9.0680 0
M  V30 145 H 20.6910 -1.8310 6.9560 0
M  V30 146 H 19.9470 -2.8470 7.8910 0
M  V30 147 H 20.1450 -3.1780 6.3720 0
M  V30 148 C 29.1190 -1.6950 9.7970 0
M  V30 149 C 29.5600 0.5310 9.0680 0
M  V30 150 H 29.2550 -3.1150 6.9560 0
M  V30 151 H 30.5060 -3.2510 7.8910 0
M  V30 152 H 30.6950 -2.9130 6.3720 0
M  V30 153 C 22.6420 -2.2280 10.9860 0
M  V30 154 C 23.0110 -0.8100 13.0910 0
M  V30 155 H 17.4160 -0.3800 14.7560 0
M  V30 156 H 18.7460 0.3200 15.2000 0
M  V30 157 C 29.1220 1.0230 10.2750 0
M  V30 158 C 28.9800 3.4900 9.3940 0
M  V30 159 H 31.0350 5.9740 14.3970 0
M  V30 160 H 30.4520 6.5450 13.0520 0
M  V30 161 H 21.1720 -2.0000 9.6530 0
M  V30 162 C 24.3400 -3.7840 10.2750 0
M  V30 163 H 24.0610 -4.4780 8.4210 0
M  V30 164 H 29.1600 -2.6120 9.6530 0
M  V30 165 C 28.6220 -1.2250 10.9860 0
M  V30 166 H 29.8620 1.1280 8.4210 0
M  V30 167 C 23.8080 -2.9460 11.2400 0
M  V30 168 H 23.9130 -0.8410 12.7670 0
M  V30 169 H 22.9270 -1.3610 13.8710 0
M  V30 170 H 22.7810 0.0970 13.3150 0
M  V30 171 C 28.6620 0.1430 11.2400 0
M  V30 172 H 28.5580 4.3040 9.6820 0
M  V30 173 H 28.4510 3.0840 8.7030 0
M  V30 174 H 29.8550 3.6890 9.0530 0
M  V30 175 C 25.6390 -4.5110 10.6030 0
M  V30 176 C 28.1070 -2.1710 12.0310 0
M  V30 177 H 24.2300 -2.8620 12.0640 0
M  V30 178 H 28.3780 0.4670 12.0640 0
M  V30 179 C 26.5470 -4.8950 9.3940 0
M  V30 180 N 25.9010 -4.7390 11.7910 0
M  V30 181 N 28.4380 -3.3850 11.9160 0
M  V30 182 C 27.2100 -1.6160 13.0910 0
M  V30 183 H 27.4620 -4.9360 9.6820 0
M  V30 184 H 26.4590 -4.2340 8.7030 0
M  V30 185 H 26.2820 -5.7530 9.0530 0
M  V30 186 C 27.1160 -5.4410 12.1930 0
M  V30 187 C 28.0060 -4.3920 12.9040 0
M  V30 188 H 26.5410 -2.2680 13.3150 0
M  V30 189 H 26.7870 -0.8190 12.7670 0
M  V30 190 H 27.7300 -1.4120 13.8710 0
M  V30 191 H 27.5730 -5.8080 11.4090 0
M  V30 192 C 26.7410 -6.5450 13.1590 0
M  V30 193 H 27.4980 -3.9570 13.6210 0
M  V30 194 C 29.2590 -5.0330 13.4790 0
M  V30 195 H 26.1950 -7.1990 12.6950 0
M  V30 196 H 26.2100 -6.1700 13.8780 0
M  V30 197 C 27.9590 -7.2500 13.7550 0
M  V30 198 C 28.8350 -6.2330 14.4270 0
M  V30 199 H 29.7650 -4.3740 13.9820 0
M  V30 200 H 29.8220 -5.3640 12.7600 0
M  V30 201 H 27.6710 -7.9170 14.3970 0
M  V30 202 H 28.4560 -7.6970 13.0520 0
M  V30 203 H 28.3630 -5.8740 15.2000 0
M  V30 204 H 29.6340 -6.6750 14.7560 0
M  V30 END ATOM
M  V30 BEGIN BOND
M  V30 0 1 2 1
M  V30 1 1 3 1
M  V30 2 1 4 1
M  V30 3 1 5 1
M  V30 4 1 6 2
M  V30 5 1 7 2
M  V30 6 1 8 2
M  V30 7 1 9 5
M  V30 8 1 10 5
M  V30 9 1 11 5
M  V30 10 1 12 6
M  V30 11 1 13 6
M  V30 12 1 14 6
M  V30 13 1 14 11
M  V30 14 1 15 11
M  V30 15 1 16 11
M  V30 16 1 17 12
M  V30 17 1 18 14
M  V30 18 1 19 14
M  V30 19 1 20 17
M  V30 20 1 21 17
M  V30 21 1 22 18
M  V30 22 1 23 20
M  V30 23 1 24 20
M  V30 24 1 25 21
M  V30 25 1 26 21
M  V30 26 1 27 21
M  V30 27 1 28 22
M  V30 28 1 29 22
M  V30 29 1 30 23
M  V30 30 1 31 23
M  V30 31 1 32 24
M  V30 32 1 33 24
M  V30 33 1 34 28
M  V30 34 1 35 28
M  V30 35 1 36 29
M  V30 36 1 37 29
M  V30 37 1 38 29
M  V30 38 1 39 31
M  V30 39 1 40 33
M  V30 40 1 40 31
M  V30 41 1 41 33
M  V30 42 1 42 34
M  V30 43 1 43 34
M  V30 44 1 44 35
M  V30 45 1 45 35
M  V30 46 1 46 39
M  V30 47 1 47 39
M  V30 48 1 48 40
M  V30 49 1 49 41
M  V30 50 1 50 41
M  V30 51 1 51 42
M  V30 52 1 51 45
M  V30 53 1 52 42
M  V30 54 1 53 45
M  V30 55 1 54 46
M  V30 56 1 55 47
M  V30 57 1 56 47
M  V30 58 1 57 47
M  V30 59 1 58 49
M  V30 60 1 59 50
M  V30 61 1 60 50
M  V30 62 1 61 50
M  V30 63 1 62 51
M  V30 64 1 63 52
M  V30 65 1 64 52
M  V30 66 1 65 53
M  V30 67 1 66 53
M  V30 68 1 67 54
M  V30 69 1 68 54
M  V30 70 1 69 54
M  V30 71 1 70 58
M  V30 72 1 71 58
M  V30 73 1 72 58
M  V30 74 1 73 63
M  V30 75 1 74 63
M  V30 76 1 75 63
M  V30 77 1 76 64
M  V30 78 1 77 65
M  V30 79 1 78 66
M  V30 80 1 79 66
M  V30 81 1 80 66
M  V30 82 1 81 68
M  V30 83 1 82 68
M  V30 84 1 83 68
M  V30 85 1 84 69
M  V30 86 1 85 69
M  V30 87 1 86 69
M  V30 88 1 87 70
M  V30 89 1 88 70
M  V30 90 1 89 70
M  V30 91 1 90 72
M  V30 92 1 91 72
M  V30 93 1 92 72
M  V30 94 1 93 76
M  V30 95 1 94 76
M  V30 96 1 95 76
M  V30 97 1 96 77
M  V30 98 1 97 77
M  V30 99 1 98 77
M  V30 100 1 99 83
M  V30 101 1 100 83
M  V30 102 1 101 85
M  V30 103 1 101 83
M  V30 104 1 102 84
M  V30 105 1 103 85
M  V30 106 1 104 85
M  V30 107 1 105 87
M  V30 108 1 106 92
M  V30 109 1 106 88
M  V30 110 1 107 88
M  V30 111 1 108 88
M  V30 112 1 109 92
M  V30 113 1 110 92
M  V30 114 1 111 93
M  V30 115 1 112 93
M  V30 116 1 113 93
M  V30 117 1 114 95
M  V30 118 1 115 95
M  V30 119 1 116 95
M  V30 120 1 117 96
M  V30 121 1 118 96
M  V30 122 1 119 96
M  V30 123 1 120 97
M  V30 124 1 121 97
M  V30 125 1 122 97
M  V30 126 1 123 101
M  V30 127 1 124 101
M  V30 128 1 125 102
M  V30 129 1 126 102
M  V30 130 1 127 105
M  V30 131 1 128 105
M  V30 132 1 129 106
M  V30 133 1 130 106
M  V30 134 1 131 111
M  V30 135 1 132 112
M  V30 136 1 133 112
M  V30 137 1 134 116
M  V30 138 1 134 112
M  V30 139 1 135 116
M  V30 140 1 136 116
M  V30 141 1 137 117
M  V30 142 1 138 119
M  V30 143 1 139 119
M  V30 144 1 140 119
M  V30 145 1 140 120
M  V30 146 1 141 120
M  V30 147 1 142 120
M  V30 148 1 143 125
M  V30 149 1 144 125
M  V30 150 1 145 126
M  V30 151 1 146 126
M  V30 152 1 147 126
M  V30 153 1 148 127
M  V30 154 1 149 127
M  V30 155 1 150 128
M  V30 156 1 151 128
M  V30 157 1 152 128
M  V30 158 1 153 143
M  V30 159 1 153 131
M  V30 160 1 154 131
M  V30 161 1 155 134
M  V30 162 1 156 134
M  V30 163 1 157 149
M  V30 164 1 157 137
M  V30 165 1 158 137
M  V30 166 1 159 140
M  V30 167 1 160 140
M  V30 168 1 161 143
M  V30 169 1 162 144
M  V30 170 1 163 144
M  V30 171 1 164 148
M  V30 172 1 165 148
M  V30 173 1 166 149
M  V30 174 1 167 162
M  V30 175 1 167 153
M  V30 176 1 168 154
M  V30 177 1 169 154
M  V30 178 1 170 154
M  V30 179 1 171 157
M  V30 180 1 171 165
M  V30 181 1 172 158
M  V30 182 1 173 158
M  V30 183 1 174 158
M  V30 184 1 175 162
M  V30 185 1 176 165
M  V30 186 1 177 167
M  V30 187 1 178 171
M  V30 188 1 179 175
M  V30 189 1 180 175
M  V30 190 1 181 176
M  V30 191 1 182 176
M  V30 192 1 183 179
M  V30 193 1 184 179
M  V30 194 1 185 179
M  V30 195 1 186 180
M  V30 196 1 187 186
M  V30 197 1 187 181
M  V30 198 1 188 182
M  V30 199 1 189 182
M  V30 200 1 190 182
M  V30 201 1 191 186
M  V30 202 1 192 186
M  V30 203 1 193 187
M  V30 204 1 194 187
M  V30 205 1 195 192
M  V30 206 1 196 192
M  V30 207 1 197 192
M  V30 208 1 198 197
M  V30 209 1 198 194
M  V30 210 1 199 194
M  V30 211 1 200 194
M  V30 212 1 201 197
M  V30 213 1 202 197
M  V30 214 1 203 198
M  V30 215 1 204 198
M  V30 END BOND
M  V30 END CTAB
M  END

$$$$
