
     RDKit          3D

  0  0  0  0  0  0  0  0  0  0999 V3000
M  V30 BEGIN CTAB
M  V30 COUNTS 228 246 0 0 0
M  V30 BEGIN ATOM
M  V30 1 C 5.3710 5.7550 21.4260 0
M  V30 2 C 5.3520 4.6430 20.3340 0
M  V30 3 H 5.1670 5.3540 22.2820 0
M  V30 4 H 6.2680 6.1210 21.4810 0
M  V30 5 C 4.3630 6.9270 21.1640 0
M  V30 6 C 3.8880 4.0880 20.0420 0
M  V30 7 H 5.7250 4.9990 19.5120 0
M  V30 8 H 5.9180 3.9060 20.6220 0
M  V30 9 C 2.9090 6.3600 20.8550 0
M  V30 10 H 4.3260 7.5040 21.9430 0
M  V30 11 H 4.6710 7.4570 20.4100 0
M  V30 12 N 3.8780 3.0520 19.0030 0
M  V30 13 H 3.5750 3.6650 20.8670 0
M  V30 14 C 2.9120 5.3040 19.7500 0
M  V30 15 H 2.3330 7.0930 20.5880 0
M  V30 16 H 2.5410 5.9730 21.6630 0
M  V30 17 C 3.6540 1.7820 19.2500 0
M  V30 18 N 1.5040 4.7280 19.4820 0
M  V30 19 H 3.2170 5.7360 18.9280 0
M  V30 20 C 3.5250 0.6560 18.3000 0
M  V30 21 H 3.5650 1.5580 20.1470 0
M  V30 22 C 1.1530 4.5830 18.2420 0
M  V30 23 C 3.4390 0.8970 16.9010 0
M  V30 24 C 3.4930 -0.7070 18.7080 0
M  V30 25 H 1.7060 4.9200 17.5770 0
M  V30 26 C -0.1200 3.8890 17.8460 0
M  V30 27 C 3.3800 -0.1890 16.0440 0
M  V30 28 H 3.4220 1.7660 16.5690 0
M  V30 29 C 3.4280 -1.8410 17.8460 0
M  V30 30 H 3.5160 -0.8750 19.6220 0
M  V30 31 C -0.3360 3.6850 16.4700 0
M  V30 32 C -1.1340 3.3780 18.7080 0
M  V30 33 C 3.2530 0.0470 14.5920 0
M  V30 34 C 3.3590 -1.5510 16.4700 0
M  V30 35 C 3.3920 -3.2900 18.2420 0
M  V30 36 H 0.2890 3.9780 15.8490 0
M  V30 37 C -1.5270 3.0210 16.0440 0
M  V30 38 H -1.0010 3.4820 19.6220 0
M  V30 39 C -2.3310 2.7250 18.3000 0
M  V30 40 C 3.1740 0.0840 13.4110 0
M  V30 41 H 3.3000 -2.2400 15.8490 0
M  V30 42 N 3.3420 -3.6660 19.4820 0
M  V30 43 H 3.4080 -3.9380 17.5770 0
M  V30 44 C -1.6670 2.7940 14.5920 0
M  V30 45 C -2.4960 2.5300 16.9010 0
M  V30 46 C -3.3700 2.2730 19.2500 0
M  V30 47 C 3.1360 0.0370 11.9740 0
M  V30 48 C 3.1380 -5.1740 19.7500 0
M  V30 49 C -1.6590 2.7070 13.4110 0
M  V30 50 H -3.2410 2.0810 16.5690 0
M  V30 51 N -4.5820 1.8320 19.0030 0
M  V30 52 H -3.1320 2.3080 20.1470 0
M  V30 53 C 3.7530 1.1210 11.3090 0
M  V30 54 C 3.7450 -1.0680 11.3390 0
M  V30 55 C 1.5960 -5.4110 20.0420 0
M  V30 56 C 4.0540 -5.7000 20.8550 0
M  V30 57 H 3.3590 -5.6540 18.9280 0
M  V30 58 C -1.6000 2.6980 11.9740 0
M  V30 59 C -5.4840 1.3230 20.0420 0
M  V30 60 C 3.7450 1.0670 9.8360 0
M  V30 61 H 4.1400 1.8260 11.7700 0
M  V30 62 H 4.1330 -1.7500 11.8420 0
M  V30 63 C 3.7530 -1.1210 9.8660 0
M  V30 64 N 0.7050 -4.8850 19.0030 0
M  V30 65 H 1.3870 -4.9290 20.8670 0
M  V30 66 C 1.3450 -6.9570 20.3340 0
M  V30 67 C 3.8180 -7.2420 21.1640 0
M  V30 68 H 4.9760 -5.5670 20.5880 0
M  V30 69 H 3.9020 -5.1870 21.6630 0
M  V30 70 C -0.9480 3.7770 11.3390 0
M  V30 71 C -2.8470 2.6900 11.3090 0
M  V30 72 C -6.0490 -0.1310 19.7500 0
M  V30 73 H -4.9620 1.2630 20.8670 0
M  V30 74 C -6.6970 2.3140 20.3340 0
M  V30 75 H 4.1330 1.7500 9.3330 0
M  V30 76 C 3.1360 -0.0380 9.2010 0
M  V30 77 H 4.1400 -1.8270 9.4050 0
M  V30 78 C -0.2840 -4.0560 19.2500 0
M  V30 79 H 1.4670 -7.4580 19.5120 0
M  V30 80 H 0.4240 -7.0780 20.6220 0
M  V30 81 C 2.2980 -7.5300 21.4260 0
M  V30 82 H 4.1230 -7.7740 20.4100 0
M  V30 83 H 4.3350 -7.4990 21.9430 0
M  V30 84 H -0.5510 4.4540 11.8420 0
M  V30 85 C -0.9060 3.8110 9.8660 0
M  V30 86 C -2.7970 2.7100 9.8360 0
M  V30 87 H -3.6520 2.6730 11.7700 0
M  V30 88 N -4.8460 -1.0620 19.4820 0
M  V30 89 C -6.9630 -0.6610 20.8550 0
M  V30 90 H -6.5760 -0.0830 18.9280 0
M  V30 91 H -7.1920 2.4590 19.5120 0
M  V30 92 H -6.3420 3.1720 20.6220 0
M  V30 93 C -7.6700 1.7740 21.4260 0
M  V30 94 C 3.1740 -0.0840 7.7640 0
M  V30 95 H -0.4330 -3.8670 20.1470 0
M  V30 96 C -1.1940 -3.3810 18.3000 0
M  V30 97 H 2.0530 -7.1520 22.2820 0
M  V30 98 H 2.1670 -8.4900 21.4810 0
M  V30 99 C -1.5360 2.7350 9.2010 0
M  V30 100 H -0.4890 4.4990 9.4050 0
M  V30 101 H -3.5820 2.7040 9.3330 0
M  V30 102 C -4.5450 -1.2930 18.2420 0
M  V30 103 H -7.3090 -1.5260 20.5880 0
M  V30 104 H -6.4430 -0.7860 21.6630 0
M  V30 105 C -8.1810 0.3150 21.1640 0
M  V30 106 H -7.2200 1.7970 22.2820 0
M  V30 107 H -8.4350 2.3680 21.4810 0
M  V30 108 C 3.2530 -0.0470 6.5830 0
M  V30 109 C -2.3580 -2.6720 18.7080 0
M  V30 110 C -0.9430 -3.4270 16.9010 0
M  V30 111 C -1.5150 2.7910 7.7640 0
M  V30 112 C -3.3080 -2.0490 17.8460 0
M  V30 113 H -5.1140 -0.9830 17.5770 0
M  V30 114 H -8.6610 -0.0050 21.9430 0
M  V30 115 H -8.7940 0.3170 20.4100 0
M  V30 116 C 3.3800 0.1880 5.1310 0
M  V30 117 H -2.5150 -2.6080 19.6220 0
M  V30 118 C -1.8530 -2.8330 16.0440 0
M  V30 119 H -0.1810 -3.8470 16.5690 0
M  V30 120 C -1.5860 2.8410 6.5830 0
M  V30 121 C -3.0230 -2.1340 16.4700 0
M  V30 122 C 3.3590 1.5510 4.7050 0
M  V30 123 C 3.4390 -0.8970 4.2740 0
M  V30 124 C -1.5860 -2.8410 14.5920 0
M  V30 125 C -1.8530 2.8330 5.1310 0
M  V30 126 H -3.5890 -1.7380 15.8490 0
M  V30 127 C 3.4280 1.8400 3.3290 0
M  V30 128 H 3.3000 2.2390 5.3260 0
M  V30 129 C 3.5250 -0.6560 2.8750 0
M  V30 130 H 3.4220 -1.7670 4.6060 0
M  V30 131 C -1.5150 -2.7910 13.4110 0
M  V30 132 C -0.9430 3.4270 4.2740 0
M  V30 133 C -3.0230 2.1330 4.7050 0
M  V30 134 C 3.3920 3.2900 2.9330 0
M  V30 135 C 3.4930 0.7070 2.4670 0
M  V30 136 C 3.6540 -1.7820 1.9250 0
M  V30 137 C -1.5360 -2.7350 11.9740 0
M  V30 138 C -1.1940 3.3810 2.8750 0
M  V30 139 H -0.1810 3.8470 4.6060 0
M  V30 140 C -3.3080 2.0490 3.3290 0
M  V30 141 H -3.5890 1.7380 5.3260 0
M  V30 142 N 3.3420 3.6660 1.6930 0
M  V30 143 H 3.4080 3.9380 3.5980 0
M  V30 144 H 3.5160 0.8750 1.5530 0
M  V30 145 N 3.8780 -3.0530 2.1720 0
M  V30 146 H 3.5650 -1.5590 1.0280 0
M  V30 147 C -2.7970 -2.7100 11.3390 0
M  V30 148 C -0.9060 -3.8110 11.3090 0
M  V30 149 C -0.2840 4.0550 1.9250 0
M  V30 150 C -2.3580 2.6710 2.4670 0
M  V30 151 C -4.5450 1.2930 2.9330 0
M  V30 152 C 3.1380 5.1730 1.4250 0
M  V30 153 C 3.8880 -4.0880 1.1330 0
M  V30 154 H -3.5820 -2.7040 11.8420 0
M  V30 155 C -2.8470 -2.6900 9.8660 0
M  V30 156 C -0.9480 -3.7770 9.8360 0
M  V30 157 H -0.4890 -4.4990 11.7700 0
M  V30 158 N 0.7050 4.8840 2.1720 0
M  V30 159 H -0.4330 3.8660 1.0280 0
M  V30 160 H -2.5150 2.6080 1.5530 0
M  V30 161 N -4.8460 1.0620 1.6930 0
M  V30 162 H -5.1140 0.9830 3.5980 0
M  V30 163 C 1.5960 5.4110 1.1330 0
M  V30 164 C 4.0540 5.7000 0.3200 0
M  V30 165 H 3.3590 5.6540 2.2470 0
M  V30 166 C 2.9120 -5.3040 1.4250 0
M  V30 167 H 3.5750 -3.6660 0.3080 0
M  V30 168 C 5.3520 -4.6430 0.8410 0
M  V30 169 C -1.6000 -2.6980 9.2010 0
M  V30 170 H -3.6520 -2.6730 9.4050 0
M  V30 171 H -0.5510 -4.4540 9.3330 0
M  V30 172 C -6.0490 0.1300 1.4250 0
M  V30 173 H 1.3870 4.9290 0.3080 0
M  V30 174 C 1.3450 6.9570 0.8410 0
M  V30 175 C 3.8180 7.2420 0.0110 0
M  V30 176 H 4.9760 5.5670 0.5870 0
M  V30 177 H 3.9020 5.1870 -0.4880 0
M  V30 178 N 1.5040 -4.7280 1.6930 0
M  V30 179 C 2.9090 -6.3610 0.3200 0
M  V30 180 H 3.2170 -5.7360 2.2470 0
M  V30 181 C 5.3710 -5.7550 -0.2510 0
M  V30 182 H 5.7250 -5.0000 1.6630 0
M  V30 183 H 5.9180 -3.9070 0.5530 0
M  V30 184 C -1.6590 -2.7080 7.7640 0
M  V30 185 C -5.4840 -1.3230 1.1330 0
M  V30 186 C -6.9630 0.6610 0.3200 0
M  V30 187 H -6.5760 0.0820 2.2470 0
M  V30 188 H 1.4670 7.4580 1.6630 0
M  V30 189 H 0.4240 7.0780 0.5530 0
M  V30 190 C 2.2980 7.5290 -0.2510 0
M  V30 191 H 4.1230 7.7740 0.7650 0
M  V30 192 H 4.3350 7.4980 -0.7680 0
M  V30 193 C 1.1530 -4.5830 2.9330 0
M  V30 194 H 2.5410 -5.9730 -0.4880 0
M  V30 195 H 2.3330 -7.0930 0.5870 0
M  V30 196 C 4.3630 -6.9270 0.0110 0
M  V30 197 H 5.1670 -5.3540 -1.1070 0
M  V30 198 H 6.2680 -6.1220 -0.3060 0
M  V30 199 C -1.6670 -2.7940 6.5830 0
M  V30 200 N -4.5820 -1.8320 2.1720 0
M  V30 201 H -4.9620 -1.2640 0.3080 0
M  V30 202 C -6.6970 -2.3140 0.8410 0
M  V30 203 C -8.1810 -0.3150 0.0110 0
M  V30 204 H -6.4430 0.7860 -0.4880 0
M  V30 205 H -7.3090 1.5260 0.5870 0
M  V30 206 H 2.0530 7.1510 -1.1070 0
M  V30 207 H 2.1670 8.4890 -0.3060 0
M  V30 208 H 1.7060 -4.9210 3.5980 0
M  V30 209 C -0.1200 -3.8890 3.3290 0
M  V30 210 H 4.3260 -7.5040 -0.7680 0
M  V30 211 H 4.6710 -7.4580 0.7650 0
M  V30 212 C -1.5270 -3.0220 5.1310 0
M  V30 213 C -3.3700 -2.2740 1.9250 0
M  V30 214 C -7.6700 -1.7740 -0.2510 0
M  V30 215 H -7.1920 -2.4590 1.6630 0
M  V30 216 H -6.3420 -3.1720 0.5530 0
M  V30 217 H -8.7940 -0.3170 0.7650 0
M  V30 218 H -8.6610 0.0050 -0.7680 0
M  V30 219 C -0.3360 -3.6850 4.7050 0
M  V30 220 C -1.1340 -3.3780 2.4670 0
M  V30 221 C -2.4960 -2.5300 4.2740 0
M  V30 222 C -2.3310 -2.7250 2.8750 0
M  V30 223 H -3.1320 -2.3080 1.0280 0
M  V30 224 H -7.2200 -1.7980 -1.1070 0
M  V30 225 H -8.4350 -2.3680 -0.3060 0
M  V30 226 H 0.2890 -3.9780 5.3260 0
M  V30 227 H -1.0010 -3.4820 1.5530 0
M  V30 228 H -3.2410 -2.0810 4.6060 0
M  V30 END ATOM
M  V30 BEGIN BOND
M  V30 0 1 2 1
M  V30 1 1 3 1
M  V30 2 1 4 1
M  V30 3 1 5 1
M  V30 4 1 6 2
M  V30 5 1 7 2
M  V30 6 1 8 2
M  V30 7 1 9 5
M  V30 8 1 10 5
M  V30 9 1 11 5
M  V30 10 1 12 6
M  V30 11 1 13 6
M  V30 12 1 14 6
M  V30 13 1 14 9
M  V30 14 1 15 9
M  V30 15 1 16 9
M  V30 16 1 17 12
M  V30 17 1 18 14
M  V30 18 1 19 14
M  V30 19 1 20 17
M  V30 20 1 21 17
M  V30 21 1 22 18
M  V30 22 1 23 20
M  V30 23 1 24 20
M  V30 24 1 25 22
M  V30 25 1 26 22
M  V30 26 1 27 23
M  V30 27 1 28 23
M  V30 28 1 29 24
M  V30 29 1 30 24
M  V30 30 1 31 26
M  V30 31 1 32 26
M  V30 32 1 33 27
M  V30 33 1 34 27
M  V30 34 1 34 29
M  V30 35 1 35 29
M  V30 36 1 36 31
M  V30 37 1 37 31
M  V30 38 1 38 32
M  V30 39 1 39 32
M  V30 40 1 40 33
M  V30 41 1 41 34
M  V30 42 1 42 35
M  V30 43 1 43 35
M  V30 44 1 44 37
M  V30 45 1 45 37
M  V30 46 1 45 39
M  V30 47 1 46 39
M  V30 48 1 47 40
M  V30 49 1 48 42
M  V30 50 1 49 44
M  V30 51 1 50 45
M  V30 52 1 51 46
M  V30 53 1 52 46
M  V30 54 1 53 47
M  V30 55 1 54 47
M  V30 56 1 55 48
M  V30 57 1 56 48
M  V30 58 1 57 48
M  V30 59 1 58 49
M  V30 60 1 59 51
M  V30 61 1 60 53
M  V30 62 1 61 53
M  V30 63 1 62 54
M  V30 64 1 63 54
M  V30 65 1 64 55
M  V30 66 1 65 55
M  V30 67 1 66 55
M  V30 68 1 67 56
M  V30 69 1 68 56
M  V30 70 1 69 56
M  V30 71 1 70 58
M  V30 72 1 71 58
M  V30 73 1 72 59
M  V30 74 1 73 59
M  V30 75 1 74 59
M  V30 76 1 75 60
M  V30 77 1 76 63
M  V30 78 1 76 60
M  V30 79 1 77 63
M  V30 80 1 78 64
M  V30 81 1 79 66
M  V30 82 1 80 66
M  V30 83 1 81 67
M  V30 84 1 81 66
M  V30 85 1 82 67
M  V30 86 1 83 67
M  V30 87 1 84 70
M  V30 88 1 85 70
M  V30 89 1 86 71
M  V30 90 1 87 71
M  V30 91 1 88 72
M  V30 92 1 89 72
M  V30 93 1 90 72
M  V30 94 1 91 74
M  V30 95 1 92 74
M  V30 96 1 93 74
M  V30 97 1 94 76
M  V30 98 1 95 78
M  V30 99 1 96 78
M  V30 100 1 97 81
M  V30 101 1 98 81
M  V30 102 1 99 86
M  V30 103 1 99 85
M  V30 104 1 100 85
M  V30 105 1 101 86
M  V30 106 1 102 88
M  V30 107 1 103 89
M  V30 108 1 104 89
M  V30 109 1 105 93
M  V30 110 1 105 89
M  V30 111 1 106 93
M  V30 112 1 107 93
M  V30 113 1 108 94
M  V30 114 1 109 96
M  V30 115 1 110 96
M  V30 116 1 111 99
M  V30 117 1 112 109
M  V30 118 1 112 102
M  V30 119 1 113 102
M  V30 120 1 114 105
M  V30 121 1 115 105
M  V30 122 1 116 108
M  V30 123 1 117 109
M  V30 124 1 118 110
M  V30 125 1 119 110
M  V30 126 1 120 111
M  V30 127 1 121 118
M  V30 128 1 121 112
M  V30 129 1 122 116
M  V30 130 1 123 116
M  V30 131 1 124 118
M  V30 132 1 125 120
M  V30 133 1 126 121
M  V30 134 1 127 122
M  V30 135 1 128 122
M  V30 136 1 129 123
M  V30 137 1 130 123
M  V30 138 1 131 124
M  V30 139 1 132 125
M  V30 140 1 133 125
M  V30 141 1 134 127
M  V30 142 1 135 129
M  V30 143 1 135 127
M  V30 144 1 136 129
M  V30 145 1 137 131
M  V30 146 1 138 132
M  V30 147 1 139 132
M  V30 148 1 140 133
M  V30 149 1 141 133
M  V30 150 1 142 134
M  V30 151 1 143 134
M  V30 152 1 144 135
M  V30 153 1 145 136
M  V30 154 1 146 136
M  V30 155 1 147 137
M  V30 156 1 148 137
M  V30 157 1 149 138
M  V30 158 1 150 140
M  V30 159 1 150 138
M  V30 160 1 151 140
M  V30 161 1 152 142
M  V30 162 1 153 145
M  V30 163 1 154 147
M  V30 164 1 155 147
M  V30 165 1 156 148
M  V30 166 1 157 148
M  V30 167 1 158 149
M  V30 168 1 159 149
M  V30 169 1 160 150
M  V30 170 1 161 151
M  V30 171 1 162 151
M  V30 172 1 163 158
M  V30 173 1 163 152
M  V30 174 1 164 152
M  V30 175 1 165 152
M  V30 176 1 166 153
M  V30 177 1 167 153
M  V30 178 1 168 153
M  V30 179 1 169 156
M  V30 180 1 169 155
M  V30 181 1 170 155
M  V30 182 1 171 156
M  V30 183 1 172 161
M  V30 184 1 173 163
M  V30 185 1 174 163
M  V30 186 1 175 164
M  V30 187 1 176 164
M  V30 188 1 177 164
M  V30 189 1 178 166
M  V30 190 1 179 166
M  V30 191 1 180 166
M  V30 192 1 181 168
M  V30 193 1 182 168
M  V30 194 1 183 168
M  V30 195 1 184 169
M  V30 196 1 185 172
M  V30 197 1 186 172
M  V30 198 1 187 172
M  V30 199 1 188 174
M  V30 200 1 189 174
M  V30 201 1 190 175
M  V30 202 1 190 174
M  V30 203 1 191 175
M  V30 204 1 192 175
M  V30 205 1 193 178
M  V30 206 1 194 179
M  V30 207 1 195 179
M  V30 208 1 196 181
M  V30 209 1 196 179
M  V30 210 1 197 181
M  V30 211 1 198 181
M  V30 212 1 199 184
M  V30 213 1 200 185
M  V30 214 1 201 185
M  V30 215 1 202 185
M  V30 216 1 203 186
M  V30 217 1 204 186
M  V30 218 1 205 186
M  V30 219 1 206 190
M  V30 220 1 207 190
M  V30 221 1 208 193
M  V30 222 1 209 193
M  V30 223 1 210 196
M  V30 224 1 211 196
M  V30 225 1 212 199
M  V30 226 1 213 200
M  V30 227 1 214 203
M  V30 228 1 214 202
M  V30 229 1 215 202
M  V30 230 1 216 202
M  V30 231 1 217 203
M  V30 232 1 218 203
M  V30 233 1 219 212
M  V30 234 1 219 209
M  V30 235 1 220 209
M  V30 236 1 221 212
M  V30 237 1 222 221
M  V30 238 1 222 220
M  V30 239 1 222 213
M  V30 240 1 223 213
M  V30 241 1 224 214
M  V30 242 1 225 214
M  V30 243 1 226 219
M  V30 244 1 227 220
M  V30 245 1 228 221
M  V30 END BOND
M  V30 END CTAB
M  END

$$$$
