
     RDKit          3D

  0  0  0  0  0  0  0  0  0  0999 V3000
M  V30 BEGIN CTAB
M  V30 COUNTS 216 234 0 0 0
M  V30 BEGIN ATOM
M  V30 1 C 7.1238 8.2534 13.4992 0
M  V30 2 C 7.4971 6.8970 13.9213 0
M  V30 3 N 7.0663 8.6396 12.2832 0
M  V30 4 H 6.9135 8.9327 14.3228 0
M  V30 5 C 7.8533 5.8969 13.0045 0
M  V30 6 C 7.5530 6.5965 15.2875 0
M  V30 7 C 6.7492 10.0500 12.0518 0
M  V30 8 C 8.2667 4.6270 13.4266 0
M  V30 9 H 7.8208 6.1250 11.9466 0
M  V30 10 C 7.9802 5.3471 15.7452 0
M  V30 11 H 7.3042 7.3538 16.0185 0
M  V30 12 C 8.0251 10.8431 11.6126 0
M  V30 13 C 5.6430 10.1337 10.9755 0
M  V30 14 H 6.3503 10.5528 12.9410 0
M  V30 15 C 8.6708 3.6242 12.4318 0
M  V30 16 C 8.3244 4.3718 14.8041 0
M  V30 17 C 8.1081 5.0809 17.2021 0
M  V30 18 N 9.0173 10.8461 12.6892 0
M  V30 19 H 8.3869 10.3708 10.6914 0
M  V30 20 C 7.6721 12.3063 11.2576 0
M  V30 21 C 5.3040 11.5931 10.6055 0
M  V30 22 H 4.7436 9.6243 11.3247 0
M  V30 23 H 5.9623 9.6007 10.0779 0
M  V30 24 N 8.8284 2.3842 12.6934 0
M  V30 25 H 8.8348 4.0259 11.4341 0
M  V30 26 H 8.6546 3.4022 15.1520 0
M  V30 27 C 9.2951 4.5560 17.7176 0
M  V30 28 C 7.0608 5.3716 18.0807 0
M  V30 29 C 10.1699 10.3613 12.4290 0
M  V30 30 H 8.5612 12.8279 10.9004 0
M  V30 31 H 7.3524 12.8362 12.1567 0
M  V30 32 C 6.5570 12.3915 10.1942 0
M  V30 33 H 4.5701 11.6107 9.7983 0
M  V30 34 H 4.8269 12.0813 11.4571 0
M  V30 35 C 9.3269 1.5254 11.6175 0
M  V30 36 H 10.1258 4.3429 17.0599 0
M  V30 37 C 9.4358 4.3360 19.0842 0
M  V30 38 C 7.1958 5.1324 19.4468 0
M  V30 39 H 6.1308 5.7702 17.7023 0
M  V30 40 C 11.2394 10.2098 13.4248 0
M  V30 41 H 10.4363 10.0174 11.4319 0
M  V30 42 H 6.2916 13.4349 10.0171 0
M  V30 43 H 6.9332 12.0106 9.2431 0
M  V30 44 C 8.2359 0.4878 11.2639 0
M  V30 45 H 9.5547 2.0739 10.6958 0
M  V30 46 C 10.6516 0.8173 12.0571 0
M  V30 47 H 10.3825 3.9630 19.4456 0
M  V30 48 C 8.3869 4.6136 19.9721 0
M  V30 49 H 6.3585 5.3466 20.0945 0
M  V30 50 C 12.5461 9.9321 13.0037 0
M  V30 51 C 10.9885 10.2878 14.8021 0
M  V30 52 H 7.3395 0.9966 10.9066 0
M  V30 53 H 7.9371 -0.0532 12.1637 0
M  V30 54 C 8.7192 -0.5217 10.2015 0
M  V30 55 N 11.7149 1.7970 12.2871 0
M  V30 56 H 10.4158 0.2213 12.9470 0
M  V30 57 C 11.1318 -0.1839 10.9818 0
M  V30 58 C 8.5452 4.3712 21.4417 0
M  V30 59 C 13.5895 9.7402 13.9213 0
M  V30 60 H 12.7607 9.8462 11.9460 0
M  V30 61 H 9.9836 10.4871 15.1492 0
M  V30 62 C 12.0045 10.0979 15.7440 0
M  V30 63 H 8.8609 -0.0063 9.2498 0
M  V30 64 H 7.9481 -1.2732 10.0252 0
M  V30 65 C 10.0371 -1.2074 10.6132 0
M  V30 66 C 12.0216 2.0405 13.5027 0
M  V30 67 H 11.4336 0.3581 10.0836 0
M  V30 68 H 12.0225 -0.7079 11.3314 0
M  V30 69 C 9.3831 3.3533 21.9156 0
M  V30 70 C 7.8863 5.1675 22.3884 0
M  V30 71 C 14.9511 9.3853 13.5003 0
M  V30 72 C 13.3003 9.8424 15.2872 0
M  V30 73 C 11.7091 10.1212 17.2007 0
M  V30 74 H 10.3884 -1.8528 9.8067 0
M  V30 75 H 9.8527 -1.8636 11.4656 0
M  V30 76 C 13.0103 3.0417 13.9237 0
M  V30 77 H 11.5389 1.5192 14.3269 0
M  V30 78 H 9.8882 2.7199 21.2004 0
M  V30 79 C 9.5960 3.1405 23.2821 0
M  V30 80 C 8.0684 4.9854 23.7672 0
M  V30 81 H 7.2481 5.9723 22.0519 0
M  V30 82 N 15.3153 9.2417 12.2846 0
M  V30 83 H 15.6441 9.2282 14.3244 0
M  V30 84 H 14.0799 9.6789 16.0188 0
M  V30 85 C 12.4846 10.8826 18.0794 0
M  V30 86 C 10.6603 9.3566 17.7160 0
M  V30 87 C 13.6982 3.8494 13.0061 0
M  V30 88 C 13.2434 3.2409 15.2896 0
M  V30 89 C 8.9281 3.9670 24.1950 0
M  V30 90 C 10.5377 2.0961 23.7064 0
M  V30 91 C 7.4307 5.8597 24.7606 0
M  V30 92 C 16.6958 8.8121 12.0543 0
M  V30 93 H 13.2955 11.4880 17.7012 0
M  V30 94 C 12.2093 10.8860 19.4453 0
M  V30 95 C 10.3989 9.3453 19.0825 0
M  V30 96 H 10.0602 8.7439 17.0583 0
M  V30 97 H 13.5165 3.7066 11.9483 0
M  V30 98 C 14.5919 4.8421 13.4273 0
M  V30 99 C 14.1124 4.2354 15.7465 0
M  V30 100 H 12.7119 2.6476 16.0211 0
M  V30 101 H 9.0975 3.8166 25.2538 0
M  V30 102 N 10.8261 1.8314 24.9222 0
M  V30 103 H 11.0033 1.5590 22.8826 0
M  V30 104 N 6.4640 6.6523 24.4992 0
M  V30 105 H 7.8576 5.7853 25.7586 0
M  V30 106 C 16.7464 7.3106 11.6156 0
M  V30 107 H 17.3300 8.9071 12.9439 0
M  V30 108 C 17.3211 9.7285 10.9781 0
M  V30 109 H 12.8137 11.5038 20.0930 0
M  V30 110 C 11.1638 10.1147 19.9706 0
M  V30 111 H 9.6021 8.7124 19.4438 0
M  V30 112 C 14.7850 5.0203 14.8046 0
M  V30 113 C 15.2578 5.6928 12.4316 0
M  V30 114 C 14.2793 4.4800 17.2032 0
M  V30 115 C 11.8407 0.8000 25.1487 0
M  V30 116 C 6.0066 7.5320 25.5768 0
M  V30 117 N 16.2530 6.4497 12.6922 0
M  V30 118 H 16.1572 7.2324 10.6941 0
M  V30 119 C 18.1907 6.8859 11.2618 0
M  V30 120 C 18.7551 9.2937 10.6090 0
M  V30 121 H 16.7004 9.7175 10.0802 0
M  V30 122 H 17.3284 10.7622 11.3269 0
M  V30 123 C 10.8741 10.0993 21.4401 0
M  V30 124 H 15.4601 5.7910 15.1518 0
M  V30 125 H 14.8275 5.6333 11.4342 0
M  V30 126 C 14.5497 3.4280 18.0826 0
M  V30 127 C 14.1413 5.7708 17.7179 0
M  V30 128 H 12.0408 0.1912 24.2588 0
M  V30 129 C 11.3171 -0.1746 26.2280 0
M  V30 130 C 13.2027 1.4395 25.5797 0
M  V30 131 C 6.1326 9.0313 25.1458 0
M  V30 132 C 4.5417 7.1765 25.9216 0
M  V30 133 H 6.5855 7.4222 26.5017 0
M  V30 134 H 18.1993 5.8550 10.9051 0
M  V30 135 H 18.8089 6.8989 12.1615 0
M  V30 136 C 18.8219 7.8092 10.1985 0
M  V30 137 H 19.1372 9.9205 9.8019 0
M  V30 138 H 19.4158 9.4637 11.4610 0
M  V30 139 C 9.5735 9.8830 21.9136 0
M  V30 140 C 11.8930 10.2716 22.3870 0
M  V30 141 H 14.6687 2.4228 17.7049 0
M  V30 142 C 14.6888 3.6651 19.4486 0
M  V30 143 C 14.2609 6.0033 19.0844 0
M  V30 144 H 13.9115 6.5966 17.0596 0
M  V30 145 H 11.0497 0.3826 27.1278 0
M  V30 146 H 10.3982 -0.6523 25.8850 0
M  V30 147 C 12.3604 -1.2530 26.5896 0
M  V30 148 N 13.7367 2.2746 24.5017 0
M  V30 149 C 14.2420 0.3478 25.9250 0
M  V30 150 H 13.0087 1.9964 26.5043 0
M  V30 151 N 7.5330 9.3952 24.9198 0
M  V30 152 H 5.5055 9.1619 24.2556 0
M  V30 153 C 5.5492 9.9716 26.2248 0
M  V30 154 C 3.9518 8.1242 26.9873 0
M  V30 155 H 4.4811 6.1454 26.2727 0
M  V30 156 H 3.9291 7.2245 25.0193 0
M  V30 157 H 18.3047 7.6729 9.2471 0
M  V30 158 H 19.8587 7.5184 10.0222 0
M  V30 159 C 9.2823 9.8054 23.2800 0
M  V30 160 H 8.7726 9.7621 21.1982 0
M  V30 161 C 11.6437 10.2054 23.7658 0
M  V30 162 H 12.9092 10.4214 22.0509 0
M  V30 163 H 14.9206 2.8330 20.0969 0
M  V30 164 C 14.5435 4.9565 19.9732 0
M  V30 165 H 14.1110 7.0100 19.4451 0
M  V30 166 C 13.7153 -0.6362 26.9908 0
M  V30 167 H 11.9822 -1.8790 27.3992 0
M  V30 168 H 12.5041 -1.9184 25.7364 0
M  V30 169 C 13.9405 3.5081 24.7625 0
M  V30 170 H 15.1655 0.8102 26.2763 0
M  V30 171 H 14.5065 -0.2071 25.0230 0
M  V30 172 C 7.9069 9.5119 23.7040 0
M  V30 173 H 5.5943 11.0063 25.8818 0
M  V30 174 H 6.1652 9.9250 27.1248 0
M  V30 175 C 4.0938 9.6060 26.5858 0
M  V30 176 H 2.9012 7.8839 27.1575 0
M  V30 177 H 4.4572 7.9573 27.9401 0
M  V30 178 C 10.3318 9.9706 24.1932 0
M  V30 179 C 12.7194 10.3205 24.7596 0
M  V30 180 C 14.6737 5.2156 21.4428 0
M  V30 181 H 13.6076 -0.1149 27.9437 0
M  V30 182 H 14.4479 -1.4267 27.1611 0
M  V30 183 C 14.3797 4.4967 23.7687 0
M  V30 184 H 13.7913 3.9157 25.7602 0
M  V30 185 H 7.2093 9.3764 22.8801 0
M  V30 186 H 3.7399 10.2463 27.3952 0
M  V30 187 H 3.4459 9.8135 25.7323 0
M  V30 188 H 10.1165 9.8993 25.2519 0
M  V30 189 N 13.8895 10.7606 24.4984 0
M  V30 190 H 12.4409 9.9888 25.7577 0
M  V30 191 C 15.1361 6.4504 21.9161 0
M  V30 192 C 14.3132 4.2473 22.3899 0
M  V30 193 C 14.8314 5.7508 24.1958 0
M  V30 194 C 14.8793 10.7174 25.5768 0
M  V30 195 H 15.4323 7.2042 21.2006 0
M  V30 196 C 15.2133 6.7420 23.2825 0
M  V30 197 H 13.9352 3.2922 22.0539 0
M  V30 198 H 14.8764 5.9734 25.2545 0
M  V30 199 C 16.1150 9.8583 25.1470 0
M  V30 200 C 15.3038 12.1639 25.9210 0
M  V30 201 H 14.4942 10.2713 26.5016 0
M  V30 202 C 15.6460 8.0802 23.7060 0
M  V30 203 N 15.7302 8.4634 24.9215 0
M  V30 204 H 16.5422 10.3356 24.2568 0
M  V30 205 C 17.2205 9.8940 26.2266 0
M  V30 206 C 16.4188 12.2015 26.9873 0
M  V30 207 H 14.4409 12.7320 26.2715 0
M  V30 208 H 15.6520 12.6700 25.0188 0
M  V30 209 H 15.8784 8.7516 22.8819 0
M  V30 210 H 16.8717 9.3843 27.1267 0
M  V30 211 H 18.0942 9.3375 25.8843 0
M  V30 212 C 17.6313 11.3374 26.5870 0
M  V30 213 H 16.0210 11.8476 27.9401 0
M  V30 214 H 16.7359 13.2315 27.1572 0
M  V30 215 H 18.3624 11.3242 27.3967 0
M  V30 216 H 18.1353 11.7943 25.7335 0
M  V30 END ATOM
M  V30 BEGIN BOND
M  V30 0 1 2 1
M  V30 1 1 3 1
M  V30 2 1 4 1
M  V30 3 1 5 2
M  V30 4 1 6 2
M  V30 5 1 7 3
M  V30 6 1 8 5
M  V30 7 1 9 5
M  V30 8 1 10 6
M  V30 9 1 11 6
M  V30 10 1 12 7
M  V30 11 1 13 7
M  V30 12 1 14 7
M  V30 13 1 15 8
M  V30 14 1 16 8
M  V30 15 1 16 10
M  V30 16 1 17 10
M  V30 17 1 18 12
M  V30 18 1 19 12
M  V30 19 1 20 12
M  V30 20 1 21 13
M  V30 21 1 22 13
M  V30 22 1 23 13
M  V30 23 1 24 15
M  V30 24 1 25 15
M  V30 25 1 26 16
M  V30 26 1 27 17
M  V30 27 1 28 17
M  V30 28 1 29 18
M  V30 29 1 30 20
M  V30 30 1 31 20
M  V30 31 1 32 21
M  V30 32 1 32 20
M  V30 33 1 33 21
M  V30 34 1 34 21
M  V30 35 1 35 24
M  V30 36 1 36 27
M  V30 37 1 37 27
M  V30 38 1 38 28
M  V30 39 1 39 28
M  V30 40 1 40 29
M  V30 41 1 41 29
M  V30 42 1 42 32
M  V30 43 1 43 32
M  V30 44 1 44 35
M  V30 45 1 45 35
M  V30 46 1 46 35
M  V30 47 1 47 37
M  V30 48 1 48 37
M  V30 49 1 48 38
M  V30 50 1 49 38
M  V30 51 1 50 40
M  V30 52 1 51 40
M  V30 53 1 52 44
M  V30 54 1 53 44
M  V30 55 1 54 44
M  V30 56 1 55 46
M  V30 57 1 56 46
M  V30 58 1 57 46
M  V30 59 1 58 48
M  V30 60 1 59 50
M  V30 61 1 60 50
M  V30 62 1 61 51
M  V30 63 1 62 51
M  V30 64 1 63 54
M  V30 65 1 64 54
M  V30 66 1 65 54
M  V30 67 1 65 57
M  V30 68 1 66 55
M  V30 69 1 67 57
M  V30 70 1 68 57
M  V30 71 1 69 58
M  V30 72 1 70 58
M  V30 73 1 71 59
M  V30 74 1 72 62
M  V30 75 1 72 59
M  V30 76 1 73 62
M  V30 77 1 74 65
M  V30 78 1 75 65
M  V30 79 1 76 66
M  V30 80 1 77 66
M  V30 81 1 78 69
M  V30 82 1 79 69
M  V30 83 1 80 70
M  V30 84 1 81 70
M  V30 85 1 82 71
M  V30 86 1 83 71
M  V30 87 1 84 72
M  V30 88 1 85 73
M  V30 89 1 86 73
M  V30 90 1 87 76
M  V30 91 1 88 76
M  V30 92 1 89 80
M  V30 93 1 89 79
M  V30 94 1 90 79
M  V30 95 1 91 80
M  V30 96 1 92 82
M  V30 97 1 93 85
M  V30 98 1 94 85
M  V30 99 1 95 86
M  V30 100 1 96 86
M  V30 101 1 97 87
M  V30 102 1 98 87
M  V30 103 1 99 88
M  V30 104 1 100 88
M  V30 105 1 101 89
M  V30 106 1 102 90
M  V30 107 1 103 90
M  V30 108 1 104 91
M  V30 109 1 105 91
M  V30 110 1 106 92
M  V30 111 1 107 92
M  V30 112 1 108 92
M  V30 113 1 109 94
M  V30 114 1 110 94
M  V30 115 1 110 95
M  V30 116 1 111 95
M  V30 117 1 112 99
M  V30 118 1 112 98
M  V30 119 1 113 98
M  V30 120 1 114 99
M  V30 121 1 115 102
M  V30 122 1 116 104
M  V30 123 1 117 113
M  V30 124 1 117 106
M  V30 125 1 118 106
M  V30 126 1 119 106
M  V30 127 1 120 108
M  V30 128 1 121 108
M  V30 129 1 122 108
M  V30 130 1 123 110
M  V30 131 1 124 112
M  V30 132 1 125 113
M  V30 133 1 126 114
M  V30 134 1 127 114
M  V30 135 1 128 115
M  V30 136 1 129 115
M  V30 137 1 130 115
M  V30 138 1 131 116
M  V30 139 1 132 116
M  V30 140 1 133 116
M  V30 141 1 134 119
M  V30 142 1 135 119
M  V30 143 1 136 120
M  V30 144 1 136 119
M  V30 145 1 137 120
M  V30 146 1 138 120
M  V30 147 1 139 123
M  V30 148 1 140 123
M  V30 149 1 141 126
M  V30 150 1 142 126
M  V30 151 1 143 127
M  V30 152 1 144 127
M  V30 153 1 145 129
M  V30 154 1 146 129
M  V30 155 1 147 129
M  V30 156 1 148 130
M  V30 157 1 149 130
M  V30 158 1 150 130
M  V30 159 1 151 131
M  V30 160 1 152 131
M  V30 161 1 153 131
M  V30 162 1 154 132
M  V30 163 1 155 132
M  V30 164 1 156 132
M  V30 165 1 157 136
M  V30 166 1 158 136
M  V30 167 1 159 139
M  V30 168 1 160 139
M  V30 169 1 161 140
M  V30 170 1 162 140
M  V30 171 1 163 142
M  V30 172 1 164 143
M  V30 173 1 164 142
M  V30 174 1 165 143
M  V30 175 1 166 149
M  V30 176 1 166 147
M  V30 177 1 167 147
M  V30 178 1 168 147
M  V30 179 1 169 148
M  V30 180 1 170 149
M  V30 181 1 171 149
M  V30 182 1 172 159
M  V30 183 1 172 151
M  V30 184 1 173 153
M  V30 185 1 174 153
M  V30 186 1 175 154
M  V30 187 1 175 153
M  V30 188 1 176 154
M  V30 189 1 177 154
M  V30 190 1 178 159
M  V30 191 1 178 161
M  V30 192 1 179 161
M  V30 193 1 180 164
M  V30 194 1 181 166
M  V30 195 1 182 166
M  V30 196 1 183 169
M  V30 197 1 184 169
M  V30 198 1 185 172
M  V30 199 1 186 175
M  V30 200 1 187 175
M  V30 201 1 188 178
M  V30 202 1 189 179
M  V30 203 1 190 179
M  V30 204 1 191 180
M  V30 205 1 192 183
M  V30 206 1 192 180
M  V30 207 1 193 183
M  V30 208 1 194 189
M  V30 209 1 195 191
M  V30 210 1 196 191
M  V30 211 1 196 193
M  V30 212 1 197 192
M  V30 213 1 198 193
M  V30 214 1 199 194
M  V30 215 1 200 194
M  V30 216 1 201 194
M  V30 217 1 202 196
M  V30 218 1 203 202
M  V30 219 1 203 199
M  V30 220 1 204 199
M  V30 221 1 205 199
M  V30 222 1 206 200
M  V30 223 1 207 200
M  V30 224 1 208 200
M  V30 225 1 209 202
M  V30 226 1 210 205
M  V30 227 1 211 205
M  V30 228 1 212 206
M  V30 229 1 212 205
M  V30 230 1 213 206
M  V30 231 1 214 206
M  V30 232 1 215 212
M  V30 233 1 216 212
M  V30 END BOND
M  V30 END CTAB
M  END

$$$$
