
     RDKit          3D

  0  0  0  0  0  0  0  0  0  0999 V3000
M  V30 BEGIN CTAB
M  V30 COUNTS 198 216 0 0 0
M  V30 BEGIN ATOM
M  V30 1 C 13.1020 10.0430 7.4420 0
M  V30 2 N 13.0850 11.4030 6.9360 0
M  V30 3 C 14.0440 9.8980 8.6170 0
M  V30 4 H 13.3770 9.4410 6.7320 0
M  V30 5 H 12.2070 9.7930 7.7150 0
M  V30 6 C 12.2930 12.2930 7.8010 0
M  V30 7 C 12.4650 11.5650 5.6380 0
M  V30 8 C 15.0910 10.7470 8.8460 0
M  V30 9 C 13.8390 8.8460 9.4950 0
M  V30 10 N 11.5010 13.1830 6.9360 0
M  V30 11 H 12.8810 12.8170 8.3670 0
M  V30 12 H 11.7050 11.7690 8.3670 0
M  V30 13 C 12.1210 13.0210 5.6380 0
M  V30 14 H 11.6370 11.0440 5.6180 0
M  V30 15 C 13.3180 11.1770 4.4430 0
M  V30 16 H 15.2190 11.4740 8.2810 0
M  V30 17 C 15.9690 10.5420 9.8980 0
M  V30 18 H 13.1120 8.2810 9.3670 0
M  V30 19 C 14.6880 8.6170 10.5420 0
M  V30 20 C 11.4840 14.5430 7.4420 0
M  V30 21 H 12.9490 13.5420 5.6180 0
M  V30 22 C 11.2680 13.4090 4.4430 0
M  V30 23 H 13.5080 10.2250 4.4500 0
M  V30 24 H 14.1570 11.6640 4.4450 0
M  V30 25 C 12.4650 11.5580 3.2110 0
M  V30 26 C 15.7400 9.4950 10.7470 0
M  V30 27 C 17.1440 11.4840 10.0430 0
M  V30 28 C 14.5430 7.4420 11.4840 0
M  V30 29 C 10.5420 14.6880 8.6170 0
M  V30 30 H 11.2090 15.1450 6.7320 0
M  V30 31 H 12.3790 14.7930 7.7150 0
M  V30 32 H 11.0780 14.3610 4.4500 0
M  V30 33 H 10.4290 12.9220 4.4450 0
M  V30 34 C 12.1210 13.0280 3.2110 0
M  V30 35 H 12.9540 11.3440 2.4020 0
M  V30 36 H 11.6460 11.0370 3.2130 0
M  V30 37 H 16.3050 9.3670 11.4740 0
M  V30 38 N 17.6500 11.5010 11.4030 0
M  V30 39 H 17.8540 11.2090 9.4410 0
M  V30 40 H 16.8710 12.3790 9.7930 0
M  V30 41 N 13.1830 6.9360 11.5010 0
M  V30 42 H 15.1450 6.7320 11.2090 0
M  V30 43 H 14.7930 7.7150 12.3790 0
M  V30 44 C 9.4950 13.8390 8.8460 0
M  V30 45 C 10.7470 15.7400 9.4950 0
M  V30 46 H 11.6320 13.2420 2.4020 0
M  V30 47 H 12.9400 13.5490 3.2130 0
M  V30 48 C 16.7850 12.2930 12.2930 0
M  V30 49 C 18.9480 12.1210 11.5650 0
M  V30 50 C 12.2930 7.8010 12.2930 0
M  V30 51 C 13.0210 5.6380 12.1210 0
M  V30 52 H 9.3670 13.1120 8.2810 0
M  V30 53 C 8.6170 14.0440 9.8980 0
M  V30 54 H 11.4740 16.3050 9.3670 0
M  V30 55 C 9.8980 15.9690 10.5420 0
M  V30 56 N 17.6500 13.0850 13.1830 0
M  V30 57 H 16.2190 11.7050 12.8170 0
M  V30 58 H 16.2190 12.8810 11.7690 0
M  V30 59 C 18.9480 12.4650 13.0210 0
M  V30 60 H 18.9680 12.9490 11.0440 0
M  V30 61 C 20.1430 11.2680 11.1770 0
M  V30 62 N 11.4030 6.9360 13.0850 0
M  V30 63 H 12.8170 8.3670 12.8810 0
M  V30 64 H 11.7690 8.3670 11.7050 0
M  V30 65 C 11.5650 5.6380 12.4650 0
M  V30 66 H 13.5420 5.6180 12.9490 0
M  V30 67 C 13.4090 4.4430 11.2680 0
M  V30 68 C 8.8460 15.0910 10.7470 0
M  V30 69 C 7.4420 13.1020 10.0430 0
M  V30 70 C 10.0430 17.1440 11.4840 0
M  V30 71 C 17.1440 13.1020 14.5430 0
M  V30 72 H 18.9680 11.6370 13.5420 0
M  V30 73 C 20.1430 13.3180 13.4090 0
M  V30 74 H 20.1360 11.0780 10.2250 0
M  V30 75 H 20.1410 10.4290 11.6640 0
M  V30 76 C 21.3750 12.1210 11.5580 0
M  V30 77 C 10.0430 7.4420 13.1020 0
M  V30 78 H 11.0440 5.6180 11.6370 0
M  V30 79 C 11.1770 4.4430 13.3180 0
M  V30 80 H 14.3610 4.4500 11.0780 0
M  V30 81 H 12.9220 4.4450 10.4290 0
M  V30 82 C 13.0280 3.2110 12.1210 0
M  V30 83 H 8.2810 15.2190 11.4740 0
M  V30 84 N 6.9360 13.0850 11.4030 0
M  V30 85 H 6.7320 13.3770 9.4410 0
M  V30 86 H 7.7150 12.2070 9.7930 0
M  V30 87 N 11.4030 17.6500 11.5010 0
M  V30 88 H 9.4410 17.8540 11.2090 0
M  V30 89 H 9.7930 16.8710 12.3790 0
M  V30 90 C 15.9690 14.0440 14.6880 0
M  V30 91 H 17.8540 13.3770 15.1450 0
M  V30 92 H 16.8710 12.2070 14.7930 0
M  V30 93 H 20.1360 13.5080 14.3610 0
M  V30 94 H 20.1410 14.1570 12.9220 0
M  V30 95 C 21.3750 12.4650 13.0280 0
M  V30 96 H 22.1840 11.6320 11.3440 0
M  V30 97 H 21.3730 12.9400 11.0370 0
M  V30 98 C 9.8980 8.6170 14.0440 0
M  V30 99 H 9.4410 6.7320 13.3770 0
M  V30 100 H 9.7930 7.7150 12.2070 0
M  V30 101 H 10.2250 4.4500 13.5080 0
M  V30 102 H 11.6640 4.4450 14.1570 0
M  V30 103 C 11.5580 3.2110 12.4650 0
M  V30 104 H 13.2420 2.4020 11.6320 0
M  V30 105 H 13.5490 3.2130 12.9400 0
M  V30 106 C 7.8010 12.2930 12.2930 0
M  V30 107 C 5.6380 12.4650 11.5650 0
M  V30 108 C 12.2930 16.7850 12.2930 0
M  V30 109 C 11.5650 18.9480 12.1210 0
M  V30 110 C 15.0910 13.8390 15.7400 0
M  V30 111 C 15.7400 15.0910 13.8390 0
M  V30 112 H 22.1840 12.9540 13.2420 0
M  V30 113 H 21.3730 11.6460 13.5490 0
M  V30 114 C 10.7470 8.8460 15.0910 0
M  V30 115 C 8.8460 9.4950 13.8390 0
M  V30 116 H 11.3440 2.4020 12.9540 0
M  V30 117 H 11.0370 3.2130 11.6460 0
M  V30 118 N 6.9360 11.5010 13.1830 0
M  V30 119 H 8.3670 12.8810 12.8170 0
M  V30 120 H 8.3670 11.7050 11.7690 0
M  V30 121 C 5.6380 12.1210 13.0210 0
M  V30 122 H 5.6180 11.6370 11.0440 0
M  V30 123 C 4.4430 13.3180 11.1770 0
M  V30 124 N 13.1830 17.6500 13.0850 0
M  V30 125 H 11.7690 16.2190 12.8810 0
M  V30 126 H 12.8170 16.2190 11.7050 0
M  V30 127 C 13.0210 18.9480 12.4650 0
M  V30 128 H 11.0440 18.9680 12.9490 0
M  V30 129 C 11.1770 20.1430 11.2680 0
M  V30 130 H 15.2190 13.1120 16.3050 0
M  V30 131 C 14.0440 14.6880 15.9690 0
M  V30 132 H 16.3050 15.2190 13.1120 0
M  V30 133 C 14.6880 15.9690 14.0440 0
M  V30 134 H 11.4740 8.2810 15.2190 0
M  V30 135 C 10.5420 9.8980 15.9690 0
M  V30 136 H 8.2810 9.3670 13.1120 0
M  V30 137 C 8.6170 10.5420 14.6880 0
M  V30 138 C 7.4420 11.4840 14.5430 0
M  V30 139 H 5.6180 12.9490 13.5420 0
M  V30 140 C 4.4430 11.2680 13.4090 0
M  V30 141 H 4.4500 13.5080 10.2250 0
M  V30 142 H 4.4450 14.1570 11.6640 0
M  V30 143 C 3.2110 12.4650 11.5580 0
M  V30 144 C 14.5430 17.1440 13.1020 0
M  V30 145 H 13.5420 18.9680 11.6370 0
M  V30 146 C 13.4090 20.1430 13.3180 0
M  V30 147 H 10.2250 20.1360 11.0780 0
M  V30 148 H 11.6640 20.1410 10.4290 0
M  V30 149 C 11.5580 21.3750 12.1210 0
M  V30 150 C 13.8390 15.7400 15.0910 0
M  V30 151 C 13.1020 14.5430 17.1440 0
M  V30 152 C 9.4950 10.7470 15.7400 0
M  V30 153 C 11.4840 10.0430 17.1440 0
M  V30 154 H 6.7320 11.2090 15.1450 0
M  V30 155 H 7.7150 12.3790 14.7930 0
M  V30 156 H 4.4500 11.0780 14.3610 0
M  V30 157 H 4.4450 10.4290 12.9220 0
M  V30 158 C 3.2110 12.1210 13.0280 0
M  V30 159 H 2.4020 12.9540 11.3440 0
M  V30 160 H 3.2130 11.6460 11.0370 0
M  V30 161 H 15.1450 17.8540 13.3770 0
M  V30 162 H 14.7930 16.8710 12.2070 0
M  V30 163 H 14.3610 20.1360 13.5080 0
M  V30 164 H 12.9220 20.1410 14.1570 0
M  V30 165 C 13.0280 21.3750 12.4650 0
M  V30 166 H 11.3440 22.1840 11.6320 0
M  V30 167 H 11.0370 21.3730 12.9400 0
M  V30 168 H 13.1120 16.3050 15.2190 0
M  V30 169 N 13.0850 13.1830 17.6500 0
M  V30 170 H 13.3770 15.1450 17.8540 0
M  V30 171 H 12.2070 14.7930 16.8710 0
M  V30 172 H 9.3670 11.4740 16.3050 0
M  V30 173 N 11.5010 11.4030 17.6500 0
M  V30 174 H 11.2090 9.4410 17.8540 0
M  V30 175 H 12.3790 9.7930 16.8710 0
M  V30 176 H 2.4020 11.6320 13.2420 0
M  V30 177 H 3.2130 12.9400 13.5490 0
M  V30 178 H 13.2420 22.1840 12.9540 0
M  V30 179 H 13.5490 21.3730 11.6460 0
M  V30 180 C 12.2930 12.2930 16.7850 0
M  V30 181 C 12.4650 13.0210 18.9480 0
M  V30 182 C 12.1210 11.5650 18.9480 0
M  V30 183 H 12.8810 11.7690 16.2190 0
M  V30 184 H 11.7050 12.8170 16.2190 0
M  V30 185 H 11.6370 13.5420 18.9680 0
M  V30 186 C 13.3180 13.4090 20.1430 0
M  V30 187 H 12.9490 11.0440 18.9680 0
M  V30 188 C 11.2680 11.1770 20.1430 0
M  V30 189 H 13.5080 14.3610 20.1360 0
M  V30 190 H 14.1570 12.9220 20.1410 0
M  V30 191 C 12.4650 13.0280 21.3750 0
M  V30 192 H 11.0780 10.2250 20.1360 0
M  V30 193 H 10.4290 11.6640 20.1410 0
M  V30 194 C 12.1210 11.5580 21.3750 0
M  V30 195 H 12.9540 13.2420 22.1840 0
M  V30 196 H 11.6460 13.5490 21.3730 0
M  V30 197 H 11.6320 11.3440 22.1840 0
M  V30 198 H 12.9400 11.0370 21.3730 0
M  V30 END ATOM
M  V30 BEGIN BOND
M  V30 0 1 2 1
M  V30 1 1 3 1
M  V30 2 1 4 1
M  V30 3 1 5 1
M  V30 4 1 6 2
M  V30 5 1 7 2
M  V30 6 1 8 3
M  V30 7 1 9 3
M  V30 8 1 10 6
M  V30 9 1 11 6
M  V30 10 1 12 6
M  V30 11 1 13 10
M  V30 12 1 13 7
M  V30 13 1 14 7
M  V30 14 1 15 7
M  V30 15 1 16 8
M  V30 16 1 17 8
M  V30 17 1 18 9
M  V30 18 1 19 9
M  V30 19 1 20 10
M  V30 20 1 21 13
M  V30 21 1 22 13
M  V30 22 1 23 15
M  V30 23 1 24 15
M  V30 24 1 25 15
M  V30 25 1 26 19
M  V30 26 1 26 17
M  V30 27 1 27 17
M  V30 28 1 28 19
M  V30 29 1 29 20
M  V30 30 1 30 20
M  V30 31 1 31 20
M  V30 32 1 32 22
M  V30 33 1 33 22
M  V30 34 1 34 25
M  V30 35 1 34 22
M  V30 36 1 35 25
M  V30 37 1 36 25
M  V30 38 1 37 26
M  V30 39 1 38 27
M  V30 40 1 39 27
M  V30 41 1 40 27
M  V30 42 1 41 28
M  V30 43 1 42 28
M  V30 44 1 43 28
M  V30 45 1 44 29
M  V30 46 1 45 29
M  V30 47 1 46 34
M  V30 48 1 47 34
M  V30 49 1 48 38
M  V30 50 1 49 38
M  V30 51 1 50 41
M  V30 52 1 51 41
M  V30 53 1 52 44
M  V30 54 1 53 44
M  V30 55 1 54 45
M  V30 56 1 55 45
M  V30 57 1 56 48
M  V30 58 1 57 48
M  V30 59 1 58 48
M  V30 60 1 59 56
M  V30 61 1 59 49
M  V30 62 1 60 49
M  V30 63 1 61 49
M  V30 64 1 62 50
M  V30 65 1 63 50
M  V30 66 1 64 50
M  V30 67 1 65 62
M  V30 68 1 65 51
M  V30 69 1 66 51
M  V30 70 1 67 51
M  V30 71 1 68 55
M  V30 72 1 68 53
M  V30 73 1 69 53
M  V30 74 1 70 55
M  V30 75 1 71 56
M  V30 76 1 72 59
M  V30 77 1 73 59
M  V30 78 1 74 61
M  V30 79 1 75 61
M  V30 80 1 76 61
M  V30 81 1 77 62
M  V30 82 1 78 65
M  V30 83 1 79 65
M  V30 84 1 80 67
M  V30 85 1 81 67
M  V30 86 1 82 67
M  V30 87 1 83 68
M  V30 88 1 84 69
M  V30 89 1 85 69
M  V30 90 1 86 69
M  V30 91 1 87 70
M  V30 92 1 88 70
M  V30 93 1 89 70
M  V30 94 1 90 71
M  V30 95 1 91 71
M  V30 96 1 92 71
M  V30 97 1 93 73
M  V30 98 1 94 73
M  V30 99 1 95 76
M  V30 100 1 95 73
M  V30 101 1 96 76
M  V30 102 1 97 76
M  V30 103 1 98 77
M  V30 104 1 99 77
M  V30 105 1 100 77
M  V30 106 1 101 79
M  V30 107 1 102 79
M  V30 108 1 103 82
M  V30 109 1 103 79
M  V30 110 1 104 82
M  V30 111 1 105 82
M  V30 112 1 106 84
M  V30 113 1 107 84
M  V30 114 1 108 87
M  V30 115 1 109 87
M  V30 116 1 110 90
M  V30 117 1 111 90
M  V30 118 1 112 95
M  V30 119 1 113 95
M  V30 120 1 114 98
M  V30 121 1 115 98
M  V30 122 1 116 103
M  V30 123 1 117 103
M  V30 124 1 118 106
M  V30 125 1 119 106
M  V30 126 1 120 106
M  V30 127 1 121 118
M  V30 128 1 121 107
M  V30 129 1 122 107
M  V30 130 1 123 107
M  V30 131 1 124 108
M  V30 132 1 125 108
M  V30 133 1 126 108
M  V30 134 1 127 124
M  V30 135 1 127 109
M  V30 136 1 128 109
M  V30 137 1 129 109
M  V30 138 1 130 110
M  V30 139 1 131 110
M  V30 140 1 132 111
M  V30 141 1 133 111
M  V30 142 1 134 114
M  V30 143 1 135 114
M  V30 144 1 136 115
M  V30 145 1 137 115
M  V30 146 1 138 137
M  V30 147 1 138 118
M  V30 148 1 139 121
M  V30 149 1 140 121
M  V30 150 1 141 123
M  V30 151 1 142 123
M  V30 152 1 143 123
M  V30 153 1 144 133
M  V30 154 1 144 124
M  V30 155 1 145 127
M  V30 156 1 146 127
M  V30 157 1 147 129
M  V30 158 1 148 129
M  V30 159 1 149 129
M  V30 160 1 150 133
M  V30 161 1 150 131
M  V30 162 1 151 131
M  V30 163 1 152 137
M  V30 164 1 152 135
M  V30 165 1 153 135
M  V30 166 1 154 138
M  V30 167 1 155 138
M  V30 168 1 156 140
M  V30 169 1 157 140
M  V30 170 1 158 143
M  V30 171 1 158 140
M  V30 172 1 159 143
M  V30 173 1 160 143
M  V30 174 1 161 144
M  V30 175 1 162 144
M  V30 176 1 163 146
M  V30 177 1 164 146
M  V30 178 1 165 149
M  V30 179 1 165 146
M  V30 180 1 166 149
M  V30 181 1 167 149
M  V30 182 1 168 150
M  V30 183 1 169 151
M  V30 184 1 170 151
M  V30 185 1 171 151
M  V30 186 1 172 152
M  V30 187 1 173 153
M  V30 188 1 174 153
M  V30 189 1 175 153
M  V30 190 1 176 158
M  V30 191 1 177 158
M  V30 192 1 178 165
M  V30 193 1 179 165
M  V30 194 1 180 173
M  V30 195 1 180 169
M  V30 196 1 181 169
M  V30 197 1 182 181
M  V30 198 1 182 173
M  V30 199 1 183 180
M  V30 200 1 184 180
M  V30 201 1 185 181
M  V30 202 1 186 181
M  V30 203 1 187 182
M  V30 204 1 188 182
M  V30 205 1 189 186
M  V30 206 1 190 186
M  V30 207 1 191 186
M  V30 208 1 192 188
M  V30 209 1 193 188
M  V30 210 1 194 191
M  V30 211 1 194 188
M  V30 212 1 195 191
M  V30 213 1 196 191
M  V30 214 1 197 194
M  V30 215 1 198 194
M  V30 END BOND
M  V30 END CTAB
M  END

$$$$
