
     RDKit          3D

  0  0  0  0  0  0  0  0  0  0999 V3000
M  V30 BEGIN CTAB
M  V30 COUNTS 108 114 0 0 0
M  V30 BEGIN ATOM
M  V30 1 C 5.9910 17.4689 11.4514 0
M  V30 2 N 5.0618 17.3295 12.5679 0
M  V30 3 C 6.5534 18.9074 11.3734 0
M  V30 4 H 5.4508 17.2510 10.5288 0
M  V30 5 H 6.8276 16.7616 11.4658 0
M  V30 6 C 5.3595 16.4825 13.4739 0
M  V30 7 N 7.3999 19.2034 12.5240 0
M  V30 8 H 7.1588 19.0041 10.4708 0
M  V30 9 H 5.7214 19.6059 11.2312 0
M  V30 10 H 6.2581 15.8718 13.4149 0
M  V30 11 C 4.5407 16.2433 14.6683 0
M  V30 12 C 7.0003 20.1152 13.3212 0
M  V30 13 C 4.8265 15.1472 15.4896 0
M  V30 14 C 3.4742 17.0810 15.0225 0
M  V30 15 H 6.0761 20.6625 13.1473 0
M  V30 16 C 7.7215 20.5134 14.5358 0
M  V30 17 C 4.0715 14.8706 16.6381 0
M  V30 18 H 5.6469 14.4879 15.2350 0
M  V30 19 C 2.6990 16.8397 16.1635 0
M  V30 20 H 3.2503 17.9315 14.3908 0
M  V30 21 C 8.8600 19.8310 14.9864 0
M  V30 22 C 7.2593 21.6021 15.2830 0
M  V30 23 C 4.3623 13.7138 17.4957 0
M  V30 24 C 3.0128 15.7288 16.9602 0
M  V30 25 C 1.5882 17.7445 16.4867 0
M  V30 26 C 9.5326 20.2153 16.1528 0
M  V30 27 H 9.2213 18.9875 14.4115 0
M  V30 28 C 7.9015 22.0132 16.4590 0
M  V30 29 H 6.3793 22.1411 14.9549 0
M  V30 30 N 5.2291 12.8242 17.2040 0
M  V30 31 H 3.7771 13.6682 18.4118 0
M  V30 32 H 2.4156 15.5364 17.8427 0
M  V30 33 N 0.7221 17.5093 17.3932 0
M  V30 34 H 1.5529 18.6476 15.8808 0
M  V30 35 C 10.7273 19.4723 16.5751 0
M  V30 36 C 9.0363 21.3079 16.8789 0
M  V30 37 C 7.4069 23.1431 17.2556 0
M  V30 38 C 5.4214 11.7306 18.1472 0
M  V30 39 C -0.3235 18.5054 17.5950 0
M  V30 40 N 11.4910 19.8375 17.5293 0
M  V30 41 H 10.9215 18.5695 15.9998 0
M  V30 42 H 9.5492 21.6068 17.7846 0
M  V30 43 N 6.4984 23.9462 16.8500 0
M  V30 44 H 7.8834 23.2440 18.2264 0
M  V30 45 C 6.8641 11.7287 18.7017 0
M  V30 46 H 5.2477 10.7928 17.6174 0
M  V30 47 H 4.7115 11.7179 18.9816 0
M  V30 48 C -0.3505 18.9991 19.0587 0
M  V30 49 H -1.2835 18.0374 17.3711 0
M  V30 50 H -0.2659 19.3714 16.9262 0
M  V30 51 C 12.6444 18.9947 17.8231 0
M  V30 52 C 5.9891 25.0415 17.6839 0
M  V30 53 N 7.0576 12.8180 19.6497 0
M  V30 54 H 7.0367 10.7883 19.2276 0
M  V30 55 H 7.5741 11.7188 17.8674 0
M  V30 56 N 0.8038 19.8393 19.3561 0
M  V30 57 H -1.2506 19.5984 19.2054 0
M  V30 58 H -0.4727 18.1376 19.7246 0
M  V30 59 C 12.6168 18.4945 19.2846 0
M  V30 60 H 13.5451 19.5938 17.6792 0
M  V30 61 H 12.7658 18.1361 17.1533 0
M  V30 62 C 6.3113 25.0381 19.2244 0
M  V30 63 H 4.9076 25.0988 17.5527 0
M  V30 64 H 6.3539 25.9781 17.2589 0
M  V30 65 C 7.9254 13.7079 19.3619 0
M  V30 66 C 1.5671 19.4693 20.3088 0
M  V30 67 N 11.5700 17.4987 19.4818 0
M  V30 68 H 13.5762 18.0242 19.5064 0
M  V30 69 H 12.5602 19.3574 19.9573 0
M  V30 70 N 5.8009 23.9397 20.0536 0
M  V30 71 H 7.3929 25.0938 19.3559 0
M  V30 72 H 5.9474 25.9732 19.6534 0
M  V30 73 H 8.5106 13.6657 18.4456 0
M  V30 74 C 8.2174 14.8605 20.2247 0
M  V30 75 H 1.3719 18.5641 20.8801 0
M  V30 76 C 2.7626 20.2091 20.7343 0
M  V30 77 C 10.7039 17.7310 20.3891 0
M  V30 78 C 4.8915 23.1393 19.6446 0
M  V30 79 C 9.2771 15.7190 19.9065 0
M  V30 80 C 7.4626 15.1329 21.3743 0
M  V30 81 C 3.4347 19.8188 21.8990 0
M  V30 82 C 3.2601 21.3043 20.0131 0
M  V30 83 H 10.7399 18.6316 20.9986 0
M  V30 84 C 9.5919 16.8261 20.7081 0
M  V30 85 H 4.4151 23.2449 18.6742 0
M  V30 86 C 4.3956 22.0065 20.4362 0
M  V30 87 H 9.8742 15.5298 19.0233 0
M  V30 88 C 7.7494 16.2249 22.2004 0
M  V30 89 H 6.6415 14.4733 21.6259 0
M  V30 90 C 4.5739 20.4979 22.3527 0
M  V30 91 H 3.0726 18.9731 22.4701 0
M  V30 92 H 2.7476 21.6077 19.1086 0
M  V30 93 C 8.8169 17.0631 21.8500 0
M  V30 94 C 5.0372 21.5896 21.6105 0
M  V30 95 C 6.9309 16.4596 23.3959 0
M  V30 96 C 5.2946 20.0936 23.5655 0
M  V30 97 H 9.0416 17.9106 22.4855 0
M  V30 98 H 5.9178 22.1262 21.9409 0
M  V30 99 N 7.2298 17.3019 24.3059 0
M  V30 100 H 6.0315 15.8499 23.4520 0
M  V30 101 N 4.8940 19.1784 24.3585 0
M  V30 102 H 6.2194 20.6391 23.7420 0
M  V30 103 C 6.3008 17.4373 25.4230 0
M  V30 104 C 5.7402 18.8762 25.5077 0
M  V30 105 H 6.8406 17.2145 26.3447 0
M  V30 106 H 5.4633 16.7312 25.4054 0
M  V30 107 H 5.1350 18.9695 26.4107 0
M  V30 108 H 6.5731 19.5730 25.6530 0
M  V30 END ATOM
M  V30 BEGIN BOND
M  V30 0 1 2 1
M  V30 1 1 3 1
M  V30 2 1 4 1
M  V30 3 1 5 1
M  V30 4 1 6 2
M  V30 5 1 7 3
M  V30 6 1 8 3
M  V30 7 1 9 3
M  V30 8 1 10 6
M  V30 9 1 11 6
M  V30 10 1 12 7
M  V30 11 1 13 11
M  V30 12 1 14 11
M  V30 13 1 15 12
M  V30 14 1 16 12
M  V30 15 1 17 13
M  V30 16 1 18 13
M  V30 17 1 19 14
M  V30 18 1 20 14
M  V30 19 1 21 16
M  V30 20 1 22 16
M  V30 21 1 23 17
M  V30 22 1 24 17
M  V30 23 1 24 19
M  V30 24 1 25 19
M  V30 25 1 26 21
M  V30 26 1 27 21
M  V30 27 1 28 22
M  V30 28 1 29 22
M  V30 29 1 30 23
M  V30 30 1 31 23
M  V30 31 1 32 24
M  V30 32 1 33 25
M  V30 33 1 34 25
M  V30 34 1 35 26
M  V30 35 1 36 26
M  V30 36 1 36 28
M  V30 37 1 37 28
M  V30 38 1 38 30
M  V30 39 1 39 33
M  V30 40 1 40 35
M  V30 41 1 41 35
M  V30 42 1 42 36
M  V30 43 1 43 37
M  V30 44 1 44 37
M  V30 45 1 45 38
M  V30 46 1 46 38
M  V30 47 1 47 38
M  V30 48 1 48 39
M  V30 49 1 49 39
M  V30 50 1 50 39
M  V30 51 1 51 40
M  V30 52 1 52 43
M  V30 53 1 53 45
M  V30 54 1 54 45
M  V30 55 1 55 45
M  V30 56 1 56 48
M  V30 57 1 57 48
M  V30 58 1 58 48
M  V30 59 1 59 51
M  V30 60 1 60 51
M  V30 61 1 61 51
M  V30 62 1 62 52
M  V30 63 1 63 52
M  V30 64 1 64 52
M  V30 65 1 65 53
M  V30 66 1 66 56
M  V30 67 1 67 59
M  V30 68 1 68 59
M  V30 69 1 69 59
M  V30 70 1 70 62
M  V30 71 1 71 62
M  V30 72 1 72 62
M  V30 73 1 73 65
M  V30 74 1 74 65
M  V30 75 1 75 66
M  V30 76 1 76 66
M  V30 77 1 77 67
M  V30 78 1 78 70
M  V30 79 1 79 74
M  V30 80 1 80 74
M  V30 81 1 81 76
M  V30 82 1 82 76
M  V30 83 1 83 77
M  V30 84 1 84 79
M  V30 85 1 84 77
M  V30 86 1 85 78
M  V30 87 1 86 82
M  V30 88 1 86 78
M  V30 89 1 87 79
M  V30 90 1 88 80
M  V30 91 1 89 80
M  V30 92 1 90 81
M  V30 93 1 91 81
M  V30 94 1 92 82
M  V30 95 1 93 88
M  V30 96 1 93 84
M  V30 97 1 94 90
M  V30 98 1 94 86
M  V30 99 1 95 88
M  V30 100 1 96 90
M  V30 101 1 97 93
M  V30 102 1 98 94
M  V30 103 1 99 95
M  V30 104 1 100 95
M  V30 105 1 101 96
M  V30 106 1 102 96
M  V30 107 1 103 99
M  V30 108 1 104 101
M  V30 109 1 104 103
M  V30 110 1 105 103
M  V30 111 1 106 103
M  V30 112 1 107 104
M  V30 113 1 108 104
M  V30 END BOND
M  V30 END CTAB
M  END

$$$$
