
     RDKit          3D

  0  0  0  0  0  0  0  0  0  0999 V3000
M  V30 BEGIN CTAB
M  V30 COUNTS 204 216 0 0 0
M  V30 BEGIN ATOM
M  V30 1 C 21.7365 6.2022 2.7590 0
M  V30 2 C 22.6456 4.9603 2.8685 0
M  V30 3 H 21.8164 6.6340 1.7603 0
M  V30 4 H 20.6943 5.8995 2.8746 0
M  V30 5 C 22.0827 7.2641 3.8208 0
M  V30 6 C 22.6409 4.3559 4.2918 0
M  V30 7 H 22.3293 4.2077 2.1446 0
M  V30 8 H 23.6642 5.2364 2.5894 0
M  V30 9 H 21.3743 8.0919 3.7641 0
M  V30 10 H 23.0634 7.6898 3.6009 0
M  V30 11 C 22.0886 6.6732 5.2456 0
M  V30 12 N 23.6019 3.2510 4.3139 0
M  V30 13 H 21.6107 4.0439 4.4703 0
M  V30 14 C 23.0115 5.4364 5.3596 0
M  V30 15 H 21.0702 6.3963 5.5241 0
M  V30 16 H 22.3983 7.4383 5.9586 0
M  V30 17 C 23.3244 2.0946 4.8009 0
M  V30 18 N 22.8977 4.8759 6.7070 0
M  V30 19 H 24.0296 5.7408 5.1090 0
M  V30 20 C 24.3499 1.0171 4.7775 0
M  V30 21 C 21.9591 1.7150 5.3903 0
M  V30 22 C 23.7675 5.0785 7.6307 0
M  V30 23 C 24.0021 -0.3421 4.7619 0
M  V30 24 C 25.7174 1.3321 4.7619 0
M  V30 25 H 22.0279 0.8753 6.0805 0
M  V30 26 H 21.5105 2.5272 5.9598 0
M  V30 27 H 21.2702 1.4262 4.5974 0
M  V30 28 C 23.6695 4.3277 8.9197 0
M  V30 29 C 24.9519 6.0460 7.4885 0
M  V30 30 H 22.9590 -0.6254 4.7417 0
M  V30 31 C 24.9586 -1.3689 4.7775 0
M  V30 32 H 25.9936 2.3771 4.7417 0
M  V30 33 C 26.7206 0.3513 4.7774 0
M  V30 34 C 22.5421 3.5416 9.2132 0
M  V30 35 C 24.7037 4.3332 9.8709 0
M  V30 36 H 25.8517 5.5034 7.2001 0
M  V30 37 H 25.1537 6.5799 8.4162 0
M  V30 38 H 24.7892 6.8208 6.7425 0
M  V30 39 C 24.5382 -2.7957 4.8009 0
M  V30 40 C 26.3097 -0.9905 4.7619 0
M  V30 41 C 28.1665 0.7006 4.8009 0
M  V30 42 C 22.4166 2.8032 10.3992 0
M  V30 43 H 21.7309 3.5288 8.4989 0
M  V30 44 H 25.6094 4.8880 9.6763 0
M  V30 45 C 24.6400 3.6136 11.0750 0
M  V30 46 N 23.3980 -3.1336 4.3139 0
M  V30 47 C 25.5496 -3.7883 5.3903 0
M  V30 48 H 27.0765 -1.7522 4.7417 0
M  V30 49 N 29.0292 -0.1178 4.3138 0
M  V30 50 C 28.5203 2.0728 5.3902 0
M  V30 51 C 23.4688 2.8824 11.3226 0
M  V30 52 C 21.2100 1.9863 10.6943 0
M  V30 53 C 25.7710 3.6492 12.0450 0
M  V30 54 C 22.9217 -4.5183 4.2918 0
M  V30 55 H 26.2424 -3.3088 6.0805 0
M  V30 56 H 25.0706 -4.5829 5.9598 0
M  V30 57 H 26.1442 -4.2405 4.5974 0
M  V30 58 C 30.4666 0.1620 4.2918 0
M  V30 59 H 27.7587 2.4330 6.0805 0
M  V30 60 H 29.4480 2.0553 5.9598 0
M  V30 61 H 28.6147 2.8138 4.5974 0
M  V30 62 H 23.3587 2.3466 12.2545 0
M  V30 63 C 20.4486 1.4410 9.4799 0
M  V30 64 N 20.8493 1.7998 11.9133 0
M  V30 65 N 26.6102 4.6223 12.0089 0
M  V30 66 C 25.8224 2.5060 13.0689 0
M  V30 67 H 23.7069 -5.2545 4.4703 0
M  V30 68 C 22.3959 -4.8165 2.8685 0
M  V30 69 C 21.8005 -4.7376 5.3596 0
M  V30 70 C 31.2170 -0.6993 5.3596 0
M  V30 71 H 30.7114 1.2101 4.4703 0
M  V30 72 C 30.9877 -0.1443 2.8685 0
M  V30 73 H 20.0927 0.4241 9.6406 0
M  V30 74 H 21.0716 1.3990 8.5873 0
M  V30 75 H 19.5963 2.0780 9.2463 0
M  V30 76 C 19.6537 1.0385 12.2819 0
M  V30 77 C 27.7188 4.7589 12.9551 0
M  V30 78 H 26.8375 2.2419 13.3587 0
M  V30 79 H 25.3813 1.5890 12.6809 0
M  V30 80 H 25.2749 2.7794 13.9701 0
M  V30 81 H 21.6475 -4.0724 2.5894 0
M  V30 82 H 23.2058 -4.7141 2.1446 0
M  V30 83 C 21.7749 -6.2247 2.7590 0
M  V30 84 N 22.3429 -4.5560 6.7070 0
M  V30 85 C 21.1909 -6.1553 5.2456 0
M  V30 86 H 21.0279 -4.0082 5.1090 0
M  V30 87 N 30.7885 -0.3205 6.7070 0
M  V30 88 C 32.7496 -0.5184 5.2457 0
M  V30 89 H 30.9716 -1.7331 5.1090 0
M  V30 90 H 30.7175 -1.1645 2.5894 0
M  V30 91 H 30.4940 0.5058 2.1446 0
M  V30 92 C 32.5177 0.0220 2.7591 0
M  V30 93 C 20.0337 -0.3222 12.9551 0
M  V30 94 H 18.9965 0.8184 11.4392 0
M  V30 95 C 18.8161 1.9154 13.2416 0
M  V30 96 C 29.0871 4.4075 12.2818 0
M  V30 97 C 27.7158 6.2169 13.4708 0
M  V30 98 H 27.6103 4.1397 13.8466 0
M  V30 99 H 21.3610 -6.3714 1.7602 0
M  V30 100 H 22.5581 -6.9760 2.8746 0
M  V30 101 C 20.6822 -6.4558 3.8207 0
M  V30 102 C 21.7325 -3.9040 7.6307 0
M  V30 103 H 20.3735 -6.2697 5.9585 0
M  V30 104 H 21.9399 -6.8988 5.5241 0
M  V30 105 C 30.5290 -1.1751 7.6307 0
M  V30 106 C 33.2642 -0.8087 3.8208 0
M  V30 107 H 33.2573 -1.1691 5.9586 0
M  V30 108 H 33.0189 0.5020 5.5241 0
M  V30 109 H 32.8517 -0.2631 1.7603 0
M  V30 110 H 32.7767 1.0760 2.8746 0
M  V30 111 N 20.7062 -1.2139 12.0089 0
M  V30 112 C 18.7725 -1.0539 13.4709 0
M  V30 113 H 20.6242 -0.1065 13.8466 0
M  V30 114 H 18.5135 2.8342 12.7368 0
M  V30 115 H 19.4319 2.2259 14.0879 0
M  V30 116 C 17.5677 1.1782 13.7685 0
M  V30 117 N 29.1485 2.9914 11.9131 0
M  V30 118 H 29.2251 5.0867 11.4391 0
M  V30 119 C 30.2654 4.6944 13.2415 0
M  V30 120 C 28.9007 6.5061 14.4152 0
M  V30 121 H 26.7770 6.4271 13.9857 0
M  V30 122 H 27.7562 6.9064 12.6254 0
M  V30 123 H 20.3194 -7.4832 3.7640 0
M  V30 124 H 19.8232 -5.8194 3.6009 0
M  V30 125 C 22.4316 -3.6134 8.9197 0
M  V30 126 C 20.3024 -3.3620 7.4884 0
M  V30 127 C 29.9277 -0.7149 8.9197 0
M  V30 128 C 30.7748 -2.6845 7.4885 0
M  V30 129 H 34.3354 -0.6092 3.7642 0
M  V30 130 H 33.1426 -1.8709 3.6010 0
M  V30 131 C 21.9686 -1.4541 12.0450 0
M  V30 132 H 19.0600 -1.9720 13.9857 0
M  V30 133 H 18.1553 -1.3637 12.6255 0
M  V30 134 C 17.9296 -0.1724 14.4153 0
M  V30 135 H 17.0406 1.8065 14.4880 0
M  V30 136 H 16.8705 1.0113 12.9454 0
M  V30 137 C 29.1296 2.5858 10.6942 0
M  V30 138 H 31.2123 4.4970 12.7367 0
M  V30 139 H 30.2264 4.0058 14.0878 0
M  V30 140 C 30.2512 6.1441 13.7683 0
M  V30 141 H 28.8969 7.5577 14.7059 0
M  V30 142 H 28.7763 5.9372 15.3384 0
M  V30 143 C 21.9098 -2.7206 9.8709 0
M  V30 144 C 23.6762 -4.1967 9.2132 0
M  V30 145 H 20.3224 -2.3115 7.2000 0
M  V30 146 H 19.7391 -3.4542 8.4161 0
M  V30 147 H 19.7128 -3.8904 6.7425 0
M  V30 148 C 29.4154 -1.6132 9.8709 0
M  V30 149 C 29.8105 0.6546 9.2132 0
M  V30 150 H 29.8550 -3.1925 7.2001 0
M  V30 151 H 31.1362 -3.1263 8.4162 0
M  V30 152 H 31.5272 -2.9310 6.7426 0
M  V30 153 C 22.5649 -2.4157 11.0749 0
M  V30 154 C 22.9329 -0.8379 13.0688 0
M  V30 155 H 17.0209 -0.7016 14.7060 0
M  V30 156 H 18.4845 0.0043 15.3385 0
M  V30 157 C 29.2336 1.1325 10.3990 0
M  V30 158 C 29.0381 3.5179 9.4798 0
M  V30 159 H 31.0590 6.2864 14.4878 0
M  V30 160 H 30.4554 6.8313 12.9453 0
M  V30 161 H 20.9765 -2.2135 9.6762 0
M  V30 162 C 24.3784 -3.9362 10.3992 0
M  V30 163 H 24.0928 -4.8929 8.4989 0
M  V30 164 H 29.4430 -2.6750 9.6762 0
M  V30 165 C 28.8239 -1.1983 11.0749 0
M  V30 166 H 30.2051 1.3635 8.4989 0
M  V30 167 C 23.7838 -3.0645 11.3226 0
M  V30 168 H 23.9476 -0.7614 12.6808 0
M  V30 169 H 22.9699 -1.4489 13.9701 0
M  V30 170 H 22.6541 0.1732 13.3586 0
M  V30 171 C 28.7762 0.1817 11.3225 0
M  V30 172 H 28.3354 4.3346 9.6405 0
M  V30 173 H 28.6904 2.9994 8.5872 0
M  V30 174 H 30.0160 3.9376 9.2463 0
M  V30 175 C 25.6891 -4.5727 10.6942 0
M  V30 176 C 28.2893 -2.1956 12.0450 0
M  V30 177 H 24.3028 -2.8919 12.2544 0
M  V30 178 H 28.3672 0.5449 12.2543 0
M  V30 179 C 26.5421 -4.9594 9.4798 0
M  V30 180 N 26.0310 -4.7918 11.9132 0
M  V30 181 N 28.7125 -3.4088 12.0089 0
M  V30 182 C 27.2736 -1.6685 13.0688 0
M  V30 183 H 27.6007 -4.7592 9.6406 0
M  V30 184 H 26.2669 -4.3989 8.5873 0
M  V30 185 H 26.4166 -6.0160 9.2463 0
M  V30 186 C 27.2881 -5.4466 12.2818 0
M  V30 187 C 28.2765 -4.4372 12.9551 0
M  V30 188 H 26.5373 -2.4156 13.3587 0
M  V30 189 H 26.6999 -0.8280 12.6808 0
M  V30 190 H 27.7841 -1.3309 13.9701 0
M  V30 191 H 27.8073 -5.9057 11.4392 0
M  V30 192 C 26.9474 -6.6105 13.2415 0
M  V30 193 H 27.7945 -4.0336 13.8466 0
M  V30 194 C 29.5408 -5.1635 13.4709 0
M  V30 195 H 26.3031 -7.3319 12.7368 0
M  V30 196 H 26.3707 -6.2324 14.0878 0
M  V30 197 C 28.2101 -7.3229 13.7684 0
M  V30 198 C 29.1988 -6.3343 14.4152 0
M  V30 199 H 30.1921 -4.4555 13.9856 0
M  V30 200 H 30.1177 -5.5432 12.6254 0
M  V30 201 H 27.9295 -8.0936 14.4879 0
M  V30 202 H 28.7032 -7.8433 12.9454 0
M  V30 203 H 28.7683 -5.9421 15.3384 0
M  V30 204 H 30.1115 -6.8567 14.7059 0
M  V30 END ATOM
M  V30 BEGIN BOND
M  V30 0 1 2 1
M  V30 1 1 3 1
M  V30 2 1 4 1
M  V30 3 1 5 1
M  V30 4 1 6 2
M  V30 5 1 7 2
M  V30 6 1 8 2
M  V30 7 1 9 5
M  V30 8 1 10 5
M  V30 9 1 11 5
M  V30 10 1 12 6
M  V30 11 1 13 6
M  V30 12 1 14 6
M  V30 13 1 14 11
M  V30 14 1 15 11
M  V30 15 1 16 11
M  V30 16 1 17 12
M  V30 17 1 18 14
M  V30 18 1 19 14
M  V30 19 1 20 17
M  V30 20 1 21 17
M  V30 21 1 22 18
M  V30 22 1 23 20
M  V30 23 1 24 20
M  V30 24 1 25 21
M  V30 25 1 26 21
M  V30 26 1 27 21
M  V30 27 1 28 22
M  V30 28 1 29 22
M  V30 29 1 30 23
M  V30 30 1 31 23
M  V30 31 1 32 24
M  V30 32 1 33 24
M  V30 33 1 34 28
M  V30 34 1 35 28
M  V30 35 1 36 29
M  V30 36 1 37 29
M  V30 37 1 38 29
M  V30 38 1 39 31
M  V30 39 1 40 33
M  V30 40 1 40 31
M  V30 41 1 41 33
M  V30 42 1 42 34
M  V30 43 1 43 34
M  V30 44 1 44 35
M  V30 45 1 45 35
M  V30 46 1 46 39
M  V30 47 1 47 39
M  V30 48 1 48 40
M  V30 49 1 49 41
M  V30 50 1 50 41
M  V30 51 1 51 42
M  V30 52 1 51 45
M  V30 53 1 52 42
M  V30 54 1 53 45
M  V30 55 1 54 46
M  V30 56 1 55 47
M  V30 57 1 56 47
M  V30 58 1 57 47
M  V30 59 1 58 49
M  V30 60 1 59 50
M  V30 61 1 60 50
M  V30 62 1 61 50
M  V30 63 1 62 51
M  V30 64 1 63 52
M  V30 65 1 64 52
M  V30 66 1 65 53
M  V30 67 1 66 53
M  V30 68 1 67 54
M  V30 69 1 68 54
M  V30 70 1 69 54
M  V30 71 1 70 58
M  V30 72 1 71 58
M  V30 73 1 72 58
M  V30 74 1 73 63
M  V30 75 1 74 63
M  V30 76 1 75 63
M  V30 77 1 76 64
M  V30 78 1 77 65
M  V30 79 1 78 66
M  V30 80 1 79 66
M  V30 81 1 80 66
M  V30 82 1 81 68
M  V30 83 1 82 68
M  V30 84 1 83 68
M  V30 85 1 84 69
M  V30 86 1 85 69
M  V30 87 1 86 69
M  V30 88 1 87 70
M  V30 89 1 88 70
M  V30 90 1 89 70
M  V30 91 1 90 72
M  V30 92 1 91 72
M  V30 93 1 92 72
M  V30 94 1 93 76
M  V30 95 1 94 76
M  V30 96 1 95 76
M  V30 97 1 96 77
M  V30 98 1 97 77
M  V30 99 1 98 77
M  V30 100 1 99 83
M  V30 101 1 100 83
M  V30 102 1 101 85
M  V30 103 1 101 83
M  V30 104 1 102 84
M  V30 105 1 103 85
M  V30 106 1 104 85
M  V30 107 1 105 87
M  V30 108 1 106 92
M  V30 109 1 106 88
M  V30 110 1 107 88
M  V30 111 1 108 88
M  V30 112 1 109 92
M  V30 113 1 110 92
M  V30 114 1 111 93
M  V30 115 1 112 93
M  V30 116 1 113 93
M  V30 117 1 114 95
M  V30 118 1 115 95
M  V30 119 1 116 95
M  V30 120 1 117 96
M  V30 121 1 118 96
M  V30 122 1 119 96
M  V30 123 1 120 97
M  V30 124 1 121 97
M  V30 125 1 122 97
M  V30 126 1 123 101
M  V30 127 1 124 101
M  V30 128 1 125 102
M  V30 129 1 126 102
M  V30 130 1 127 105
M  V30 131 1 128 105
M  V30 132 1 129 106
M  V30 133 1 130 106
M  V30 134 1 131 111
M  V30 135 1 132 112
M  V30 136 1 133 112
M  V30 137 1 134 116
M  V30 138 1 134 112
M  V30 139 1 135 116
M  V30 140 1 136 116
M  V30 141 1 137 117
M  V30 142 1 138 119
M  V30 143 1 139 119
M  V30 144 1 140 119
M  V30 145 1 140 120
M  V30 146 1 141 120
M  V30 147 1 142 120
M  V30 148 1 143 125
M  V30 149 1 144 125
M  V30 150 1 145 126
M  V30 151 1 146 126
M  V30 152 1 147 126
M  V30 153 1 148 127
M  V30 154 1 149 127
M  V30 155 1 150 128
M  V30 156 1 151 128
M  V30 157 1 152 128
M  V30 158 1 153 143
M  V30 159 1 153 131
M  V30 160 1 154 131
M  V30 161 1 155 134
M  V30 162 1 156 134
M  V30 163 1 157 149
M  V30 164 1 157 137
M  V30 165 1 158 137
M  V30 166 1 159 140
M  V30 167 1 160 140
M  V30 168 1 161 143
M  V30 169 1 162 144
M  V30 170 1 163 144
M  V30 171 1 164 148
M  V30 172 1 165 148
M  V30 173 1 166 149
M  V30 174 1 167 162
M  V30 175 1 167 153
M  V30 176 1 168 154
M  V30 177 1 169 154
M  V30 178 1 170 154
M  V30 179 1 171 157
M  V30 180 1 171 165
M  V30 181 1 172 158
M  V30 182 1 173 158
M  V30 183 1 174 158
M  V30 184 1 175 162
M  V30 185 1 176 165
M  V30 186 1 177 167
M  V30 187 1 178 171
M  V30 188 1 179 175
M  V30 189 1 180 175
M  V30 190 1 181 176
M  V30 191 1 182 176
M  V30 192 1 183 179
M  V30 193 1 184 179
M  V30 194 1 185 179
M  V30 195 1 186 180
M  V30 196 1 187 186
M  V30 197 1 187 181
M  V30 198 1 188 182
M  V30 199 1 189 182
M  V30 200 1 190 182
M  V30 201 1 191 186
M  V30 202 1 192 186
M  V30 203 1 193 187
M  V30 204 1 194 187
M  V30 205 1 195 192
M  V30 206 1 196 192
M  V30 207 1 197 192
M  V30 208 1 198 197
M  V30 209 1 198 194
M  V30 210 1 199 194
M  V30 211 1 200 194
M  V30 212 1 201 197
M  V30 213 1 202 197
M  V30 214 1 203 198
M  V30 215 1 204 198
M  V30 END BOND
M  V30 END CTAB
M  END

$$$$
