
     RDKit          3D

  0  0  0  0  0  0  0  0  0  0999 V3000
M  V30 BEGIN CTAB
M  V30 COUNTS 228 246 0 0 0
M  V30 BEGIN ATOM
M  V30 1 C 21.1741 6.6668 21.7568 0
M  V30 2 H 20.1941 6.9881 22.1127 0
M  V30 3 H 20.9912 6.0880 20.8496 0
M  V30 4 C 21.8537 5.7717 22.8172 0
M  V30 5 C 22.0322 7.9018 21.4086 0
M  V30 6 N 21.0151 4.5910 23.0411 0
M  V30 7 H 21.9624 6.3929 23.7146 0
M  V30 8 C 23.2963 5.3611 22.3658 0
M  V30 9 H 21.5548 8.4726 20.6107 0
M  V30 10 C 23.4660 7.5147 20.9928 0
M  V30 11 H 22.0738 8.5685 22.2719 0
M  V30 12 C 20.8332 4.2387 24.2560 0
M  V30 13 N 23.9524 4.5996 23.4285 0
M  V30 14 H 23.1860 4.7957 21.4328 0
M  V30 15 C 24.1491 6.6082 22.0389 0
M  V30 16 H 23.4370 6.9998 20.0309 0
M  V30 17 H 24.0629 8.4143 20.8348 0
M  V30 18 H 21.2552 4.8076 25.0821 0
M  V30 19 C 20.0835 3.0461 24.6718 0
M  V30 20 C 24.3407 3.4154 23.1532 0
M  V30 21 H 24.3274 7.1817 22.9504 0
M  V30 22 H 25.1319 6.3036 21.6766 0
M  V30 23 C 20.0071 2.7262 26.0338 0
M  V30 24 C 19.4778 2.1800 23.7473 0
M  V30 25 H 24.2890 3.0109 22.1446 0
M  V30 26 C 24.8705 2.4827 24.1554 0
M  V30 27 H 20.4846 3.3588 26.7704 0
M  V30 28 C 19.3462 1.5755 26.4631 0
M  V30 29 H 19.5536 2.4091 22.6916 0
M  V30 30 C 18.8057 1.0202 24.1570 0
M  V30 31 C 25.5388 1.3203 23.7467 0
M  V30 32 C 24.6613 2.6837 25.5276 0
M  V30 33 C 19.3303 1.2237 27.8751 0
M  V30 34 C 18.7368 0.7392 25.5293 0
M  V30 35 C 18.2619 0.0948 23.1554 0
M  V30 36 C 25.9861 0.3634 24.6720 0
M  V30 37 H 25.6992 1.1391 22.6912 0
M  V30 38 C 25.0809 1.7384 26.4621 0
M  V30 39 H 24.1330 3.5648 25.8671 0
M  V30 40 C 19.3430 0.8913 29.0506 0
M  V30 41 H 18.2380 -0.1588 25.8695 0
M  V30 42 N 17.4300 -0.8330 23.4315 0
M  V30 43 H 18.6380 0.2513 22.1467 0
M  V30 44 C 26.6435 -0.8827 24.2572 0
M  V30 45 C 25.7470 0.5904 26.0337 0
M  V30 46 C 24.7841 1.9290 27.8739 0
M  V30 47 C 19.3693 0.4660 30.4414 0
M  V30 48 C 17.0980 -1.7825 22.3695 0
M  V30 49 N 26.8583 -1.2173 23.0426 0
M  V30 50 H 26.9234 -1.5329 25.0838 0
M  V30 51 H 26.0560 -0.1389 26.7709 0
M  V30 52 C 24.4901 2.0843 29.0495 0
M  V30 53 C 18.5533 1.1031 31.3773 0
M  V30 54 C 20.2112 -0.5766 30.8328 0
M  V30 55 H 17.6428 -1.5961 21.4362 0
M  V30 56 C 15.5916 -1.6672 22.0427 0
M  V30 57 C 17.4633 -3.2369 22.8219 0
M  V30 58 C 27.4605 -2.5344 22.8197 0
M  V30 59 C 24.1092 2.2733 30.4406 0
M  V30 60 H 17.9000 1.9104 31.0778 0
M  V30 61 C 18.5739 0.6906 32.7080 0
M  V30 62 C 20.2349 -0.9868 32.1646 0
M  V30 63 H 20.8449 -1.0706 30.1101 0
M  V30 64 H 15.0058 -1.7984 22.9544 0
M  V30 65 H 15.3644 -0.6639 21.6796 0
M  V30 66 C 15.1475 -2.7126 20.9976 0
M  V30 67 N 18.9052 -3.3730 23.0451 0
M  V30 68 C 17.0272 -4.2737 21.7626 0
M  V30 69 H 16.8714 -3.4524 23.7198 0
M  V30 70 C 26.3828 -3.5775 22.3681 0
M  V30 71 C 28.5762 -2.3947 21.7599 0
M  V30 72 H 27.9432 -2.9392 23.7175 0
M  V30 73 C 25.0714 2.6515 31.3781 0
M  V30 74 C 22.7836 2.0741 30.8306 0
M  V30 75 C 19.4114 -0.3559 33.0988 0
M  V30 76 H 17.9356 1.1812 33.4291 0
M  V30 77 H 20.8888 -1.7939 32.4636 0
M  V30 78 H 15.6080 -2.4813 20.0354 0
M  V30 79 H 14.0700 -2.6452 20.8395 0
M  V30 80 C 15.5286 -4.1477 21.4145 0
M  V30 81 C 19.3021 -3.3536 24.2598 0
M  V30 82 H 17.2385 -5.2828 22.1193 0
M  V30 83 H 17.6198 -4.1438 20.8551 0
M  V30 84 N 25.3953 -3.7643 23.4309 0
M  V30 85 H 25.9485 -3.1989 21.4351 0
M  V30 86 C 27.0352 -4.9402 22.0410 0
M  V30 87 C 29.2153 -3.7561 21.4119 0
M  V30 88 H 29.3451 -1.7076 22.1162 0
M  V30 89 H 28.1674 -1.9464 20.8524 0
M  V30 90 H 26.0985 2.8068 31.0795 0
M  V30 91 C 24.7045 2.8386 32.7092 0
M  V30 92 C 22.4172 2.2574 32.1628 0
M  V30 93 H 22.0370 1.7800 30.1068 0
M  V30 94 C 19.4163 -0.7922 34.4865 0
M  V30 95 H 15.2726 -4.8471 20.6173 0
M  V30 96 H 14.9305 -4.4440 22.2782 0
M  V30 97 H 18.5989 -3.2719 25.0863 0
M  V30 98 C 20.7100 -3.4064 24.6746 0
M  V30 99 C 24.1756 -3.5084 23.1554 0
M  V30 100 H 27.4419 -5.3822 22.9526 0
M  V30 101 H 26.2793 -5.6382 21.6784 0
M  V30 102 C 28.1622 -4.8029 20.9954 0
M  V30 103 H 29.7710 -4.1261 22.2754 0
M  V30 104 H 29.9489 -3.6287 20.6143 0
M  V30 105 C 23.3778 2.6452 33.0987 0
M  V30 106 H 25.4504 3.1383 33.4315 0
M  V30 107 H 21.3900 2.1014 32.4608 0
M  V30 108 C 19.3974 -1.1367 35.6587 0
M  V30 109 C 21.0264 -3.3122 26.0363 0
M  V30 110 C 21.7622 -3.4981 23.7493 0
M  V30 111 H 23.8511 -3.2620 22.1467 0
M  V30 112 C 23.1031 -3.5001 24.1578 0
M  V30 113 H 27.7313 -4.5195 20.0334 0
M  V30 114 H 28.6418 -5.7701 20.8372 0
M  V30 115 C 22.9983 2.8578 34.4868 0
M  V30 116 C 19.3870 -1.5041 37.0668 0
M  V30 117 H 20.2403 -3.2149 26.7735 0
M  V30 118 C 22.3537 -3.3089 26.4644 0
M  V30 119 H 21.5250 -3.5472 22.6939 0
M  V30 120 C 23.3819 -3.4186 25.5299 0
M  V30 121 C 22.7097 3.0455 35.6591 0
M  V30 122 C 18.7716 -0.6709 37.9994 0
M  V30 123 C 20.0242 -2.6686 37.4942 0
M  V30 124 C 22.6675 -3.1466 27.8761 0
M  V30 125 H 24.4093 -3.4013 25.8692 0
M  V30 126 C 22.3962 3.2376 37.0672 0
M  V30 127 C 18.8114 -0.9688 39.3693 0
M  V30 128 H 18.2914 0.2377 37.6610 0
M  V30 129 C 20.0711 -3.0055 38.8536 0
M  V30 130 H 20.5066 -3.2984 36.7585 0
M  V30 131 C 22.9501 -2.9697 29.0515 0
M  V30 132 C 21.0690 3.2681 37.4941 0
M  V30 133 C 23.4250 3.3537 38.0004 0
M  V30 134 C 18.2651 -0.0451 40.3707 0
M  V30 135 C 19.4605 -2.1421 39.7775 0
M  V30 136 C 20.7982 -4.2121 39.2682 0
M  V30 137 C 23.3060 -2.7352 30.4423 0
M  V30 138 C 20.7530 3.3959 38.8533 0
M  V30 139 H 20.2827 3.1653 36.7579 0
M  V30 140 C 23.1464 3.4678 39.3702 0
M  V30 141 H 24.4522 3.3153 37.6625 0
M  V30 142 N 17.4425 0.8900 40.0911 0
M  V30 143 H 18.6314 -0.2088 41.3820 0
M  V30 144 H 19.5150 -2.3840 40.8316 0
M  V30 145 N 20.9627 -4.5777 40.4819 0
M  V30 146 H 21.2223 -4.7793 38.4419 0
M  V30 147 C 23.1598 -3.7603 31.3780 0
M  V30 148 C 23.7907 -1.4859 30.8338 0
M  V30 149 C 19.3443 3.3698 39.2673 0
M  V30 150 C 21.8056 3.4927 39.7777 0
M  V30 151 C 24.2190 3.4797 40.3721 0
M  V30 152 C 17.1152 1.8430 41.1515 0
M  V30 153 C 21.7867 -5.7695 40.7024 0
M  V30 154 H 22.7852 -4.7288 31.0783 0
M  V30 155 C 23.5067 -3.5370 32.7089 0
M  V30 156 C 24.1342 -1.2612 32.1658 0
M  V30 157 H 23.9036 -0.6902 30.1113 0
M  V30 158 N 18.9451 3.4107 40.4809 0
M  V30 159 H 18.6414 3.2857 38.4408 0
M  V30 160 H 21.5684 3.5667 40.8316 0
M  V30 161 N 25.4402 3.7250 40.0933 0
M  V30 162 H 23.8935 3.2444 41.3832 0
M  V30 163 H 17.6524 1.6499 42.0877 0
M  V30 164 C 15.6058 1.7466 41.4698 0
M  V30 165 C 17.5009 3.2931 40.7009 0
M  V30 166 C 23.2353 -5.3783 41.1531 0
M  V30 167 C 21.0980 -6.6591 41.7613 0
M  V30 168 H 21.8860 -6.3895 39.8033 0
M  V30 169 C 23.9969 -2.2896 33.0999 0
M  V30 170 H 23.3989 -4.3349 33.4298 0
M  V30 171 H 24.5081 -0.2922 32.4651 0
M  V30 172 C 26.4283 3.5326 41.1545 0
M  V30 173 H 15.0268 1.8859 40.5549 0
M  V30 174 H 15.3638 0.7461 41.8309 0
M  V30 175 C 15.1699 2.7972 42.5134 0
M  V30 176 C 17.0744 4.3344 41.7596 0
M  V30 177 H 16.9145 3.5171 39.8015 0
M  V30 178 N 23.8971 -4.6185 40.0927 0
M  V30 179 H 23.1336 -4.8164 42.0892 0
M  V30 180 C 24.0734 -6.6372 41.4719 0
M  V30 181 C 21.9413 -7.9063 42.1030 0
M  V30 182 H 20.1131 -6.9666 41.4066 0
M  V30 183 H 20.9246 -6.0811 42.6708 0
M  V30 184 C 24.3717 -2.0680 34.4879 0
M  V30 185 C 27.4920 2.4737 40.7053 0
M  V30 186 H 25.9920 3.1642 42.0906 0
M  V30 187 C 27.0989 4.8884 41.4729 0
M  V30 188 C 15.5725 4.2277 42.1006 0
M  V30 189 H 15.6219 2.5587 43.4779 0
M  V30 190 H 14.0908 2.7441 42.6654 0
M  V30 191 H 17.3008 5.3410 41.4049 0
M  V30 192 H 17.6613 4.1955 42.6694 0
M  V30 193 C 24.2957 -3.4386 40.3724 0
M  V30 194 H 24.2423 -7.2086 40.5572 0
M  V30 195 H 25.0609 -6.3463 41.8329 0
M  V30 196 C 23.3815 -7.5395 42.5158 0
M  V30 197 H 21.9717 -8.5706 41.2374 0
M  V30 198 H 21.4588 -8.4734 42.9004 0
M  V30 199 C 24.6786 -1.9126 35.6603 0
M  V30 200 N 26.8724 1.1639 40.4848 0
M  V30 201 C 28.6060 2.3230 41.7651 0
M  V30 202 H 27.9800 2.8695 39.8064 0
M  V30 203 H 27.5096 5.3199 40.5582 0
M  V30 204 H 26.3528 5.5980 41.8332 0
M  V30 205 C 28.2259 4.7413 42.5174 0
M  V30 206 H 14.9825 4.5334 41.2346 0
M  V30 207 H 15.3222 4.9293 42.8977 0
M  V30 208 H 24.2543 -3.0395 41.3836 0
M  V30 209 C 24.8233 -2.5039 39.3712 0
M  V30 210 H 23.3620 -7.0285 43.4801 0
M  V30 211 H 23.9670 -8.4475 42.6683 0
M  V30 212 C 25.0010 -1.7380 37.0687 0
M  V30 213 C 26.6390 0.8384 39.2710 0
M  V30 214 H 29.3650 1.6236 41.4115 0
M  V30 215 H 28.1914 1.8847 42.6747 0
M  V30 216 C 29.2640 3.6774 42.1060 0
M  V30 217 H 27.7927 4.4698 43.4817 0
M  V30 218 H 28.7192 5.7027 42.6692 0
M  V30 219 C 24.5862 -2.6874 38.0012 0
M  V30 220 C 25.5148 -1.3552 39.7797 0
M  V30 221 C 25.6908 -0.6041 37.4966 0
M  V30 222 H 26.9194 1.4886 38.4447 0
M  V30 223 C 25.9583 -0.3950 38.8561 0
M  V30 224 H 29.9961 3.5439 42.9039 0
M  V30 225 H 29.8245 4.0351 41.2404 0
M  V30 226 H 24.0395 -3.5574 37.6624 0
M  V30 227 H 25.6962 -1.1869 40.8340 0
M  V30 228 H 25.9955 0.1286 36.7610 0
M  V30 END ATOM
M  V30 BEGIN BOND
M  V30 0 1 2 1
M  V30 1 1 3 1
M  V30 2 1 4 1
M  V30 3 1 5 1
M  V30 4 1 6 4
M  V30 5 1 7 4
M  V30 6 1 8 4
M  V30 7 1 9 5
M  V30 8 1 10 5
M  V30 9 1 11 5
M  V30 10 1 12 6
M  V30 11 1 13 8
M  V30 12 1 14 8
M  V30 13 1 15 8
M  V30 14 1 15 10
M  V30 15 1 16 10
M  V30 16 1 17 10
M  V30 17 1 18 12
M  V30 18 1 19 12
M  V30 19 1 20 13
M  V30 20 1 21 15
M  V30 21 1 22 15
M  V30 22 1 23 19
M  V30 23 1 24 19
M  V30 24 1 25 20
M  V30 25 1 26 20
M  V30 26 1 27 23
M  V30 27 1 28 23
M  V30 28 1 29 24
M  V30 29 1 30 24
M  V30 30 1 31 26
M  V30 31 1 32 26
M  V30 32 1 33 28
M  V30 33 1 34 30
M  V30 34 1 34 28
M  V30 35 1 35 30
M  V30 36 1 36 31
M  V30 37 1 37 31
M  V30 38 1 38 32
M  V30 39 1 39 32
M  V30 40 1 40 33
M  V30 41 1 41 34
M  V30 42 1 42 35
M  V30 43 1 43 35
M  V30 44 1 44 36
M  V30 45 1 45 38
M  V30 46 1 45 36
M  V30 47 1 46 38
M  V30 48 1 47 40
M  V30 49 1 48 42
M  V30 50 1 49 44
M  V30 51 1 50 44
M  V30 52 1 51 45
M  V30 53 1 52 46
M  V30 54 1 53 47
M  V30 55 1 54 47
M  V30 56 1 55 48
M  V30 57 1 56 48
M  V30 58 1 57 48
M  V30 59 1 58 49
M  V30 60 1 59 52
M  V30 61 1 60 53
M  V30 62 1 61 53
M  V30 63 1 62 54
M  V30 64 1 63 54
M  V30 65 1 64 56
M  V30 66 1 65 56
M  V30 67 1 66 56
M  V30 68 1 67 57
M  V30 69 1 68 57
M  V30 70 1 69 57
M  V30 71 1 70 58
M  V30 72 1 71 58
M  V30 73 1 72 58
M  V30 74 1 73 59
M  V30 75 1 74 59
M  V30 76 1 75 62
M  V30 77 1 75 61
M  V30 78 1 76 61
M  V30 79 1 77 62
M  V30 80 1 78 66
M  V30 81 1 79 66
M  V30 82 1 80 68
M  V30 83 1 80 66
M  V30 84 1 81 67
M  V30 85 1 82 68
M  V30 86 1 83 68
M  V30 87 1 84 70
M  V30 88 1 85 70
M  V30 89 1 86 70
M  V30 90 1 87 71
M  V30 91 1 88 71
M  V30 92 1 89 71
M  V30 93 1 90 73
M  V30 94 1 91 73
M  V30 95 1 92 74
M  V30 96 1 93 74
M  V30 97 1 94 75
M  V30 98 1 95 80
M  V30 99 1 96 80
M  V30 100 1 97 81
M  V30 101 1 98 81
M  V30 102 1 99 84
M  V30 103 1 100 86
M  V30 104 1 101 86
M  V30 105 1 102 87
M  V30 106 1 102 86
M  V30 107 1 103 87
M  V30 108 1 104 87
M  V30 109 1 105 92
M  V30 110 1 105 91
M  V30 111 1 106 91
M  V30 112 1 107 92
M  V30 113 1 108 94
M  V30 114 1 109 98
M  V30 115 1 110 98
M  V30 116 1 111 99
M  V30 117 1 112 110
M  V30 118 1 112 99
M  V30 119 1 113 102
M  V30 120 1 114 102
M  V30 121 1 115 105
M  V30 122 1 116 108
M  V30 123 1 117 109
M  V30 124 1 118 109
M  V30 125 1 119 110
M  V30 126 1 120 118
M  V30 127 1 120 112
M  V30 128 1 121 115
M  V30 129 1 122 116
M  V30 130 1 123 116
M  V30 131 1 124 118
M  V30 132 1 125 120
M  V30 133 1 126 121
M  V30 134 1 127 122
M  V30 135 1 128 122
M  V30 136 1 129 123
M  V30 137 1 130 123
M  V30 138 1 131 124
M  V30 139 1 132 126
M  V30 140 1 133 126
M  V30 141 1 134 127
M  V30 142 1 135 129
M  V30 143 1 135 127
M  V30 144 1 136 129
M  V30 145 1 137 131
M  V30 146 1 138 132
M  V30 147 1 139 132
M  V30 148 1 140 133
M  V30 149 1 141 133
M  V30 150 1 142 134
M  V30 151 1 143 134
M  V30 152 1 144 135
M  V30 153 1 145 136
M  V30 154 1 146 136
M  V30 155 1 147 137
M  V30 156 1 148 137
M  V30 157 1 149 138
M  V30 158 1 150 140
M  V30 159 1 150 138
M  V30 160 1 151 140
M  V30 161 1 152 142
M  V30 162 1 153 145
M  V30 163 1 154 147
M  V30 164 1 155 147
M  V30 165 1 156 148
M  V30 166 1 157 148
M  V30 167 1 158 149
M  V30 168 1 159 149
M  V30 169 1 160 150
M  V30 170 1 161 151
M  V30 171 1 162 151
M  V30 172 1 163 152
M  V30 173 1 164 152
M  V30 174 1 165 158
M  V30 175 1 165 152
M  V30 176 1 166 153
M  V30 177 1 167 153
M  V30 178 1 168 153
M  V30 179 1 169 156
M  V30 180 1 169 155
M  V30 181 1 170 155
M  V30 182 1 171 156
M  V30 183 1 172 161
M  V30 184 1 173 164
M  V30 185 1 174 164
M  V30 186 1 175 164
M  V30 187 1 176 165
M  V30 188 1 177 165
M  V30 189 1 178 166
M  V30 190 1 179 166
M  V30 191 1 180 166
M  V30 192 1 181 167
M  V30 193 1 182 167
M  V30 194 1 183 167
M  V30 195 1 184 169
M  V30 196 1 185 172
M  V30 197 1 186 172
M  V30 198 1 187 172
M  V30 199 1 188 176
M  V30 200 1 188 175
M  V30 201 1 189 175
M  V30 202 1 190 175
M  V30 203 1 191 176
M  V30 204 1 192 176
M  V30 205 1 193 178
M  V30 206 1 194 180
M  V30 207 1 195 180
M  V30 208 1 196 181
M  V30 209 1 196 180
M  V30 210 1 197 181
M  V30 211 1 198 181
M  V30 212 1 199 184
M  V30 213 1 200 185
M  V30 214 1 201 185
M  V30 215 1 202 185
M  V30 216 1 203 187
M  V30 217 1 204 187
M  V30 218 1 205 187
M  V30 219 1 206 188
M  V30 220 1 207 188
M  V30 221 1 208 193
M  V30 222 1 209 193
M  V30 223 1 210 196
M  V30 224 1 211 196
M  V30 225 1 212 199
M  V30 226 1 213 200
M  V30 227 1 214 201
M  V30 228 1 215 201
M  V30 229 1 216 205
M  V30 230 1 216 201
M  V30 231 1 217 205
M  V30 232 1 218 205
M  V30 233 1 219 212
M  V30 234 1 219 209
M  V30 235 1 220 209
M  V30 236 1 221 212
M  V30 237 1 222 213
M  V30 238 1 223 221
M  V30 239 1 223 220
M  V30 240 1 223 213
M  V30 241 1 224 216
M  V30 242 1 225 216
M  V30 243 1 226 219
M  V30 244 1 227 220
M  V30 245 1 228 221
M  V30 END BOND
M  V30 END CTAB
M  END

$$$$
