
     RDKit          3D

  0  0  0  0  0  0  0  0  0  0999 V3000
M  V30 BEGIN CTAB
M  V30 COUNTS 216 234 0 0 0
M  V30 BEGIN ATOM
M  V30 1 C 3.9025 5.2948 11.0159 0
M  V30 2 C 3.9829 3.8087 10.6131 0
M  V30 3 C 4.5290 6.2185 9.9500 0
M  V30 4 H 2.8629 5.5777 11.1880 0
M  V30 5 H 4.4158 5.4399 11.9682 0
M  V30 6 H 3.6047 3.1828 11.4228 0
M  V30 7 H 3.3253 3.6287 9.7609 0
M  V30 8 C 5.4213 3.3839 10.2488 0
M  V30 9 C 5.9775 5.8034 9.6025 0
M  V30 10 H 4.5115 7.2508 10.3023 0
M  V30 11 H 3.9135 6.1967 9.0488 0
M  V30 12 H 5.4231 2.3487 9.9045 0
M  V30 13 H 6.0405 3.4040 11.1476 0
M  V30 14 C 6.0407 4.3007 9.1695 0
M  V30 15 N 6.4696 6.6648 8.5253 0
M  V30 16 H 6.5617 5.8879 10.5267 0
M  V30 17 N 7.4245 3.8796 8.9399 0
M  V30 18 H 5.4069 4.1970 8.2806 0
M  V30 19 C 7.4697 7.4150 8.7863 0
M  V30 20 C 7.7909 3.7511 7.7231 0
M  V30 21 C 8.1430 8.2629 7.7935 0
M  V30 22 H 7.9009 7.4693 9.7837 0
M  V30 23 C 9.1521 3.4021 7.2953 0
M  V30 24 H 7.0979 3.9180 6.9010 0
M  V30 25 C 9.0459 9.2428 8.2221 0
M  V30 26 C 7.9523 8.0908 6.4145 0
M  V30 27 C 10.1953 3.1889 8.2057 0
M  V30 28 C 9.4373 3.3187 5.9280 0
M  V30 29 H 9.2224 9.3841 9.2809 0
M  V30 30 C 9.7480 10.0413 7.3099 0
M  V30 31 H 7.2799 7.3147 6.0772 0
M  V30 32 C 8.6441 8.8598 5.4685 0
M  V30 33 H 9.9851 3.2642 9.2652 0
M  V30 34 C 11.4954 2.9005 7.7748 0
M  V30 35 C 10.7268 3.0496 5.4510 0
M  V30 36 H 8.6410 3.4763 5.2147 0
M  V30 37 C 9.5251 9.8401 5.9433 0
M  V30 38 C 10.7342 11.0434 7.7349 0
M  V30 39 C 8.4741 8.6277 3.9986 0
M  V30 40 C 11.7392 2.8302 6.3952 0
M  V30 41 C 12.5669 2.7342 8.7659 0
M  V30 42 C 11.0124 3.0263 3.9807 0
M  V30 43 H 10.0563 10.4524 5.2287 0
M  V30 44 N 11.0356 11.2930 8.9507 0
M  V30 45 H 11.2212 11.5619 6.9114 0
M  V30 46 C 7.2612 8.1624 3.4731 0
M  V30 47 C 9.5333 8.8617 3.1102 0
M  V30 48 H 12.7475 2.6389 6.0565 0
M  V30 49 N 13.7160 2.2441 8.5007 0
M  V30 50 H 12.3050 3.0739 9.7658 0
M  V30 51 C 12.0240 2.2136 3.4515 0
M  V30 52 C 10.2782 3.8287 3.0958 0
M  V30 53 C 12.0941 12.2794 9.1773 0
M  V30 54 H 6.4161 7.9828 4.1211 0
M  V30 55 C 7.1144 7.9337 2.1064 0
M  V30 56 C 9.3816 8.6525 1.7431 0
M  V30 57 H 10.4957 9.1920 3.4717 0
M  V30 58 C 14.7087 2.2391 9.5773 0
M  V30 59 H 12.6037 1.5697 4.0963 0
M  V30 60 C 12.2961 2.2084 2.0850 0
M  V30 61 C 10.5358 3.8094 1.7287 0
M  V30 62 H 9.5090 4.4932 3.4602 0
M  V30 63 C 13.4279 11.5812 9.6048 0
M  V30 64 C 11.6146 13.2739 10.2589 0
M  V30 65 H 12.3188 12.8807 8.2880 0
M  V30 66 H 6.1675 7.5771 1.7279 0
M  V30 67 C 8.1723 8.1816 1.2274 0
M  V30 68 H 10.2201 8.8315 1.0850 0
M  V30 69 H 14.3450 2.6972 10.5049 0
M  V30 70 C 15.0705 0.7739 9.9141 0
M  V30 71 C 15.9801 3.0452 9.1491 0
M  V30 72 H 13.0804 1.5708 1.7039 0
M  V30 73 C 11.5509 3.0029 1.2096 0
M  V30 74 H 9.9602 4.4476 1.0734 0
M  V30 75 N 13.9237 10.7256 8.5247 0
M  V30 76 H 13.2118 11.0317 10.5289 0
M  V30 77 C 14.5137 12.6268 9.9496 0
M  V30 78 C 12.7038 14.3059 10.6203 0
M  V30 79 H 10.7164 13.7911 9.9182 0
M  V30 80 H 11.3250 12.7272 11.1583 0
M  V30 81 C 8.0312 7.9264 -0.2302 0
M  V30 82 H 14.1843 0.2420 10.2634 0
M  V30 83 H 15.3951 0.2575 9.0088 0
M  V30 84 C 16.1845 0.6828 10.9783 0
M  V30 85 N 15.6560 4.4563 8.9290 0
M  V30 86 C 17.0842 2.9572 10.2271 0
M  V30 87 H 16.3851 2.5529 8.2567 0
M  V30 88 C 11.8444 3.0161 -0.2477 0
M  V30 89 C 14.0763 9.4843 8.7835 0
M  V30 90 H 15.4173 12.1247 10.2984 0
M  V30 91 H 14.8000 13.1713 9.0479 0
M  V30 92 C 14.0317 13.6308 11.0180 0
M  V30 93 H 12.3542 14.9461 11.4317 0
M  V30 94 H 12.8744 14.9659 9.7679 0
M  V30 95 C 7.5494 6.6984 -0.6915 0
M  V30 96 C 8.4168 8.8888 -1.1687 0
M  V30 97 H 15.8038 1.0485 11.9336 0
M  V30 98 C 17.4327 1.4958 10.5805 0
M  V30 99 H 16.4572 -0.3609 11.1423 0
M  V30 100 C 15.5865 4.8463 7.7147 0
M  V30 101 H 17.9808 3.4769 9.8860 0
M  V30 102 H 16.7589 3.4775 11.1299 0
M  V30 103 C 13.1496 3.2154 -0.7058 0
M  V30 104 C 10.8200 2.8719 -1.1888 0
M  V30 105 C 14.4719 8.4797 7.7873 0
M  V30 106 H 13.9123 9.0819 9.7810 0
M  V30 107 H 13.9034 13.1129 11.9702 0
M  V30 108 H 14.7979 14.3888 11.1881 0
M  V30 109 H 7.2685 5.9503 0.0373 0
M  V30 110 C 7.4791 6.4051 -2.0585 0
M  V30 111 C 8.3464 8.6409 -2.5469 0
M  V30 112 H 8.7897 9.8418 -0.8181 0
M  V30 113 H 18.1645 1.4737 11.3894 0
M  V30 114 H 17.9159 1.0215 9.7244 0
M  V30 115 C 15.2106 6.2027 7.2952 0
M  V30 116 H 15.7889 4.1680 6.8884 0
M  V30 117 H 13.9365 3.3436 0.0250 0
M  V30 118 C 13.4416 3.3060 -2.0718 0
M  V30 119 C 11.0728 2.9401 -2.5663 0
M  V30 120 H 9.8077 2.7161 -0.8409 0
M  V30 121 C 14.8713 7.2070 8.2112 0
M  V30 122 C 14.4144 8.7348 6.4092 0
M  V30 123 C 7.8773 7.3917 -2.9726 0
M  V30 124 C 7.0463 5.0678 -2.4845 0
M  V30 125 C 8.7928 9.6280 -3.5394 0
M  V30 126 C 15.1439 6.5003 5.9295 0
M  V30 127 C 12.3899 3.1607 -2.9885 0
M  V30 128 C 14.8172 3.6004 -2.4937 0
M  V30 129 C 9.9970 2.8360 -3.5614 0
M  V30 130 H 14.9081 6.9802 9.2693 0
M  V30 131 C 14.7329 7.7544 5.4596 0
M  V30 132 H 14.0764 9.7056 6.0756 0
M  V30 133 H 7.8334 7.1688 -4.0312 0
M  V30 134 N 6.9707 4.6882 -3.7016 0
M  V30 135 H 6.8073 4.3957 -1.6628 0
M  V30 136 N 9.0051 10.8592 -3.2745 0
M  V30 137 H 8.9375 9.2225 -4.5385 0
M  V30 138 H 15.4073 5.7365 5.2119 0
M  V30 139 H 12.6071 3.2378 -4.0464 0
M  V30 140 N 15.1867 3.7282 -3.7096 0
M  V30 141 H 15.5169 3.7263 -1.6700 0
M  V30 142 N 8.8252 2.3995 -3.3017 0
M  V30 143 H 10.2770 3.1708 -4.5580 0
M  V30 144 C 14.6121 8.0221 3.9909 0
M  V30 145 C 6.5930 3.2934 -3.9365 0
M  V30 146 C 9.5392 11.6984 -4.3489 0
M  V30 147 C 16.5846 4.0971 -3.9401 0
M  V30 148 C 7.8335 2.4472 -4.3778 0
M  V30 149 C 14.8120 9.3073 3.4691 0
M  V30 150 C 14.2834 6.9904 3.1003 0
M  V30 151 H 6.1726 2.8060 -3.0486 0
M  V30 152 C 5.4843 3.2602 -5.0130 0
M  V30 153 C 10.8942 12.3468 -3.9095 0
M  V30 154 C 8.4942 12.7835 -4.6982 0
M  V30 155 H 9.7416 11.1428 -5.2724 0
M  V30 156 H 17.2147 3.9720 -3.0513 0
M  V30 157 C 17.1683 3.1568 -5.0190 0
M  V30 158 C 16.7009 5.5962 -4.3749 0
M  V30 159 C 7.4178 1.0014 -4.7359 0
M  V30 160 H 8.2149 2.9055 -5.2982 0
M  V30 161 H 15.0803 10.1271 4.1188 0
M  V30 162 C 14.6812 9.5533 2.1038 0
M  V30 163 C 14.1717 7.2310 1.7345 0
M  V30 164 H 14.0911 5.9902 3.4591 0
M  V30 165 H 4.6077 3.8070 -4.6626 0
M  V30 166 H 5.8264 3.7811 -5.9093 0
M  V30 167 C 5.0827 1.8176 -5.3866 0
M  V30 168 N 11.9138 11.3208 -3.6835 0
M  V30 169 H 10.6858 12.9503 -3.0178 0
M  V30 170 C 11.4163 13.3287 -4.9830 0
M  V30 171 C 9.0196 13.7737 -5.7589 0
M  V30 172 H 7.5759 12.3153 -5.0555 0
M  V30 173 H 8.2205 13.3347 -3.7966 0
M  V30 174 H 17.1303 2.1229 -4.6727 0
M  V30 175 H 16.5482 3.1973 -5.9165 0
M  V30 176 C 18.6199 3.5290 -5.3877 0
M  V30 177 N 16.2465 6.4751 -3.2957 0
M  V30 178 C 18.1623 5.9577 -4.7286 0
M  V30 179 H 16.1152 5.7025 -5.2959 0
M  V30 180 H 7.0755 0.4838 -3.8379 0
M  V30 181 C 6.3001 0.9666 -5.7995 0
M  V30 182 H 8.2836 0.4426 -5.0943 0
M  V30 183 H 14.8427 10.5533 1.7282 0
M  V30 184 C 14.3643 8.5159 1.2226 0
M  V30 185 H 13.9057 6.4174 1.0747 0
M  V30 186 H 4.3489 1.8335 -6.1938 0
M  V30 187 H 4.5848 1.3484 -4.5361 0
M  V30 188 C 12.2110 11.0611 -2.4688 0
M  V30 189 H 12.3296 13.8124 -4.6334 0
M  V30 190 H 11.6931 12.7763 -5.8830 0
M  V30 191 C 10.3670 14.4000 -5.3476 0
M  V30 192 H 8.2820 14.5588 -5.9321 0
M  V30 193 H 9.1373 13.2551 -6.7121 0
M  V30 194 H 18.9737 2.8881 -6.1966 0
M  V30 195 H 19.2729 3.3280 -4.5365 0
M  V30 196 C 18.7517 5.0102 -5.7946 0
M  V30 197 C 15.2844 7.2746 -3.5532 0
M  V30 198 H 18.2161 6.9881 -5.0827 0
M  V30 199 H 18.7798 5.9152 -3.8294 0
M  V30 200 H 5.9899 -0.0640 -5.9789 0
M  V30 201 H 6.6924 1.3330 -6.7498 0
M  V30 202 C 14.2063 8.7711 -0.2333 0
M  V30 203 C 13.1552 10.0164 -2.0516 0
M  V30 204 H 11.7527 11.6012 -1.6428 0
M  V30 205 H 10.7450 15.0315 -6.1530 0
M  V30 206 H 10.2127 15.0616 -4.4932 0
M  V30 207 H 18.2405 5.1714 -6.7453 0
M  V30 208 H 19.8002 5.2556 -5.9709 0
M  V30 209 C 14.6571 8.1507 -2.5545 0
M  V30 210 H 14.8558 7.3550 -4.5499 0
M  V30 211 C 13.3807 9.8035 -0.6865 0
M  V30 212 C 14.8431 7.9602 -1.1779 0
M  V30 213 C 13.8068 9.1824 -2.9721 0
M  V30 214 H 12.8762 10.4174 0.0472 0
M  V30 215 H 15.4842 7.1599 -0.8335 0
M  V30 216 H 13.6304 9.3359 -4.0293 0
M  V30 END ATOM
M  V30 BEGIN BOND
M  V30 0 1 2 1
M  V30 1 1 3 1
M  V30 2 1 4 1
M  V30 3 1 5 1
M  V30 4 1 6 2
M  V30 5 1 7 2
M  V30 6 1 8 2
M  V30 7 1 9 3
M  V30 8 1 10 3
M  V30 9 1 11 3
M  V30 10 1 12 8
M  V30 11 1 13 8
M  V30 12 1 14 8
M  V30 13 1 14 9
M  V30 14 1 15 9
M  V30 15 1 16 9
M  V30 16 1 17 14
M  V30 17 1 18 14
M  V30 18 1 19 15
M  V30 19 1 20 17
M  V30 20 1 21 19
M  V30 21 1 22 19
M  V30 22 1 23 20
M  V30 23 1 24 20
M  V30 24 1 25 21
M  V30 25 1 26 21
M  V30 26 1 27 23
M  V30 27 1 28 23
M  V30 28 1 29 25
M  V30 29 1 30 25
M  V30 30 1 31 26
M  V30 31 1 32 26
M  V30 32 1 33 27
M  V30 33 1 34 27
M  V30 34 1 35 28
M  V30 35 1 36 28
M  V30 36 1 37 32
M  V30 37 1 37 30
M  V30 38 1 38 30
M  V30 39 1 39 32
M  V30 40 1 40 35
M  V30 41 1 40 34
M  V30 42 1 41 34
M  V30 43 1 42 35
M  V30 44 1 43 37
M  V30 45 1 44 38
M  V30 46 1 45 38
M  V30 47 1 46 39
M  V30 48 1 47 39
M  V30 49 1 48 40
M  V30 50 1 49 41
M  V30 51 1 50 41
M  V30 52 1 51 42
M  V30 53 1 52 42
M  V30 54 1 53 44
M  V30 55 1 54 46
M  V30 56 1 55 46
M  V30 57 1 56 47
M  V30 58 1 57 47
M  V30 59 1 58 49
M  V30 60 1 59 51
M  V30 61 1 60 51
M  V30 62 1 61 52
M  V30 63 1 62 52
M  V30 64 1 63 53
M  V30 65 1 64 53
M  V30 66 1 65 53
M  V30 67 1 66 55
M  V30 68 1 67 56
M  V30 69 1 67 55
M  V30 70 1 68 56
M  V30 71 1 69 58
M  V30 72 1 70 58
M  V30 73 1 71 58
M  V30 74 1 72 60
M  V30 75 1 73 61
M  V30 76 1 73 60
M  V30 77 1 74 61
M  V30 78 1 75 63
M  V30 79 1 76 63
M  V30 80 1 77 63
M  V30 81 1 78 64
M  V30 82 1 79 64
M  V30 83 1 80 64
M  V30 84 1 81 67
M  V30 85 1 82 70
M  V30 86 1 83 70
M  V30 87 1 84 70
M  V30 88 1 85 71
M  V30 89 1 86 71
M  V30 90 1 87 71
M  V30 91 1 88 73
M  V30 92 1 89 75
M  V30 93 1 90 77
M  V30 94 1 91 77
M  V30 95 1 92 78
M  V30 96 1 92 77
M  V30 97 1 93 78
M  V30 98 1 94 78
M  V30 99 1 95 81
M  V30 100 1 96 81
M  V30 101 1 97 84
M  V30 102 1 98 84
M  V30 103 1 98 86
M  V30 104 1 99 84
M  V30 105 1 100 85
M  V30 106 1 101 86
M  V30 107 1 102 86
M  V30 108 1 103 88
M  V30 109 1 104 88
M  V30 110 1 105 89
M  V30 111 1 106 89
M  V30 112 1 107 92
M  V30 113 1 108 92
M  V30 114 1 109 95
M  V30 115 1 110 95
M  V30 116 1 111 96
M  V30 117 1 112 96
M  V30 118 1 113 98
M  V30 119 1 114 98
M  V30 120 1 115 100
M  V30 121 1 116 100
M  V30 122 1 117 103
M  V30 123 1 118 103
M  V30 124 1 119 104
M  V30 125 1 120 104
M  V30 126 1 121 115
M  V30 127 1 121 105
M  V30 128 1 122 105
M  V30 129 1 123 111
M  V30 130 1 123 110
M  V30 131 1 124 110
M  V30 132 1 125 111
M  V30 133 1 126 115
M  V30 134 1 127 119
M  V30 135 1 127 118
M  V30 136 1 128 118
M  V30 137 1 129 119
M  V30 138 1 130 121
M  V30 139 1 131 126
M  V30 140 1 131 122
M  V30 141 1 132 122
M  V30 142 1 133 123
M  V30 143 1 134 124
M  V30 144 1 135 124
M  V30 145 1 136 125
M  V30 146 1 137 125
M  V30 147 1 138 126
M  V30 148 1 139 127
M  V30 149 1 140 128
M  V30 150 1 141 128
M  V30 151 1 142 129
M  V30 152 1 143 129
M  V30 153 1 144 131
M  V30 154 1 145 134
M  V30 155 1 146 136
M  V30 156 1 147 140
M  V30 157 1 148 145
M  V30 158 1 148 142
M  V30 159 1 149 144
M  V30 160 1 150 144
M  V30 161 1 151 145
M  V30 162 1 152 145
M  V30 163 1 153 146
M  V30 164 1 154 146
M  V30 165 1 155 146
M  V30 166 1 156 147
M  V30 167 1 157 147
M  V30 168 1 158 147
M  V30 169 1 159 148
M  V30 170 1 160 148
M  V30 171 1 161 149
M  V30 172 1 162 149
M  V30 173 1 163 150
M  V30 174 1 164 150
M  V30 175 1 165 152
M  V30 176 1 166 152
M  V30 177 1 167 152
M  V30 178 1 168 153
M  V30 179 1 169 153
M  V30 180 1 170 153
M  V30 181 1 171 154
M  V30 182 1 172 154
M  V30 183 1 173 154
M  V30 184 1 174 157
M  V30 185 1 175 157
M  V30 186 1 176 157
M  V30 187 1 177 158
M  V30 188 1 178 158
M  V30 189 1 179 158
M  V30 190 1 180 159
M  V30 191 1 181 167
M  V30 192 1 181 159
M  V30 193 1 182 159
M  V30 194 1 183 162
M  V30 195 1 184 163
M  V30 196 1 184 162
M  V30 197 1 185 163
M  V30 198 1 186 167
M  V30 199 1 187 167
M  V30 200 1 188 168
M  V30 201 1 189 170
M  V30 202 1 190 170
M  V30 203 1 191 171
M  V30 204 1 191 170
M  V30 205 1 192 171
M  V30 206 1 193 171
M  V30 207 1 194 176
M  V30 208 1 195 176
M  V30 209 1 196 176
M  V30 210 1 196 178
M  V30 211 1 197 177
M  V30 212 1 198 178
M  V30 213 1 199 178
M  V30 214 1 200 181
M  V30 215 1 201 181
M  V30 216 1 202 184
M  V30 217 1 203 188
M  V30 218 1 204 188
M  V30 219 1 205 191
M  V30 220 1 206 191
M  V30 221 1 207 196
M  V30 222 1 208 196
M  V30 223 1 209 197
M  V30 224 1 210 197
M  V30 225 1 211 203
M  V30 226 1 211 202
M  V30 227 1 212 209
M  V30 228 1 212 202
M  V30 229 1 213 209
M  V30 230 1 213 203
M  V30 231 1 214 211
M  V30 232 1 215 212
M  V30 233 1 216 213
M  V30 END BOND
M  V30 END CTAB
M  END

$$$$
