
     RDKit          3D

  0  0  0  0  0  0  0  0  0  0999 V3000
M  V30 BEGIN CTAB
M  V30 COUNTS 168 180 0 0 0
M  V30 BEGIN ATOM
M  V30 1 C 4.3391 11.2174 31.5016 0
M  V30 2 C 3.8524 12.4651 31.0856 0
M  V30 3 C 4.0928 10.7227 32.7879 0
M  V30 4 H 4.9316 10.6335 30.8086 0
M  V30 5 C 4.1304 13.0084 29.7482 0
M  V30 6 C 3.0939 13.2163 31.9911 0
M  V30 7 C 4.6518 9.4220 33.1841 0
M  V30 8 C 3.3287 11.5055 33.6655 0
M  V30 9 N 4.9319 12.4674 28.9147 0
M  V30 10 H 3.5961 13.9272 29.5164 0
M  V30 11 C 2.8252 12.7560 33.2882 0
M  V30 12 H 2.7129 14.1853 31.6943 0
M  V30 13 N 4.6088 8.9646 34.3752 0
M  V30 14 H 5.1190 8.8674 32.3730 0
M  V30 15 H 3.1392 11.1321 34.6639 0
M  V30 16 C 5.1199 13.1319 27.6254 0
M  V30 17 C 2.0557 13.5503 34.2568 0
M  V30 18 C 5.2199 7.6593 34.6241 0
M  V30 19 C 4.6640 12.2052 26.4520 0
M  V30 20 C 6.6183 13.5009 27.5014 0
M  V30 21 H 4.5561 14.0675 27.5303 0
M  V30 22 N 1.6910 14.7567 34.0539 0
M  V30 23 H 1.8186 13.0266 35.1805 0
M  V30 24 C 4.1527 6.6353 35.1302 0
M  V30 25 C 6.3469 7.8596 35.6665 0
M  V30 26 H 5.6873 7.2198 33.7349 0
M  V30 27 N 3.2146 12.0104 26.4773 0
M  V30 28 H 5.2314 11.2715 26.5442 0
M  V30 29 C 5.0318 12.8156 25.0777 0
M  V30 30 C 6.9671 14.1022 26.1255 0
M  V30 31 H 6.8944 14.2038 28.2889 0
M  V30 32 H 7.2301 12.6115 27.6648 0
M  V30 33 C 0.9416 15.4275 35.1157 0
M  V30 34 N 3.1967 6.3167 34.0702 0
M  V30 35 H 3.6868 7.0740 36.0206 0
M  V30 36 C 4.8133 5.3097 35.5809 0
M  V30 37 C 6.9896 6.5290 36.1053 0
M  V30 38 H 7.1144 8.5210 35.2617 0
M  V30 39 H 5.9470 8.3670 36.5466 0
M  V30 40 C 2.7798 10.8207 26.6361 0
M  V30 41 H 4.4348 13.7128 24.9030 0
M  V30 42 H 4.7685 12.1199 24.2795 0
M  V30 43 C 6.5258 13.1807 24.9740 0
M  V30 44 H 8.0402 14.2895 26.0625 0
M  V30 45 H 6.4834 15.0749 26.0199 0
M  V30 46 C -0.4803 15.8402 34.6145 0
M  V30 47 H 0.7976 14.8061 36.0076 0
M  V30 48 C 1.7622 16.6624 35.5610 0
M  V30 49 C 1.9696 6.6048 34.2725 0
M  V30 50 H 4.0583 4.6408 35.9965 0
M  V30 51 H 5.2276 4.7926 34.7132 0
M  V30 52 C 5.9352 5.5297 36.6148 0
M  V30 53 H 7.5309 6.0910 35.2647 0
M  V30 54 H 7.7339 6.7133 36.8815 0
M  V30 55 C 1.3527 10.4691 26.6673 0
M  V30 56 H 3.4536 9.9750 26.7558 0
M  V30 57 H 7.1254 12.2687 24.9866 0
M  V30 58 H 6.7258 13.6610 24.0150 0
M  V30 59 N -1.3072 14.6586 34.3712 0
M  V30 60 C -1.2124 16.7186 35.6581 0
M  V30 61 H -0.3363 16.4629 33.7236 0
M  V30 62 H 2.7205 16.3429 35.9732 0
M  V30 63 H 1.9998 17.2782 34.6914 0
M  V30 64 C 1.0157 17.5262 36.5967 0
M  V30 65 C 0.8964 6.3323 33.3053 0
M  V30 66 H 1.6351 7.0754 35.1946 0
M  V30 67 H 5.5042 5.8983 37.5474 0
M  V30 68 H 6.4104 4.5777 36.8565 0
M  V30 69 C 0.9743 9.1214 26.6746 0
M  V30 70 C 0.3430 11.4424 26.6707 0
M  V30 71 C -1.7311 14.4662 33.1825 0
M  V30 72 C -0.3784 17.9402 36.0920 0
M  V30 73 H -2.1700 17.0530 35.2562 0
M  V30 74 H -1.4494 16.1203 36.5400 0
M  V30 75 H 0.9152 16.9700 37.5304 0
M  V30 76 H 1.6044 18.4134 36.8348 0
M  V30 77 C 1.1597 5.8656 32.0093 0
M  V30 78 C -0.4381 6.5230 33.6829 0
M  V30 79 C -0.3734 8.7335 26.6746 0
M  V30 80 H 1.7362 8.3522 26.6660 0
M  V30 81 C -1.0135 11.0961 26.6706 0
M  V30 82 H 0.6281 12.4868 26.6590 0
M  V30 83 C -2.5808 13.3318 32.7922 0
M  V30 84 H -1.4882 15.1470 32.3695 0
M  V30 85 H -0.2724 18.6267 35.2501 0
M  V30 86 H -0.9067 18.4943 36.8695 0
M  V30 87 C 0.1292 5.5825 31.1051 0
M  V30 88 H 2.1892 5.7101 31.7123 0
M  V30 89 C -1.4987 6.2509 32.8066 0
M  V30 90 H -0.6661 6.8769 34.6804 0
M  V30 91 C -0.7815 7.3214 26.6508 0
M  V30 92 C -1.3515 9.7350 26.6778 0
M  V30 93 C -2.0324 12.1555 26.6434 0
M  V30 94 C -3.1389 13.2967 31.5088 0
M  V30 95 C -2.8728 12.2799 33.6724 0
M  V30 96 C 0.4588 5.0674 29.7682 0
M  V30 97 C -1.1943 5.7866 31.5214 0
M  V30 98 C -2.9045 6.4193 33.2024 0
M  V30 99 N 0.0325 6.3508 26.4927 0
M  V30 100 H -1.8501 7.1597 26.7755 0
M  V30 101 H -2.3985 9.4596 26.6716 0
M  V30 102 N -3.2802 11.9355 26.4876 0
M  V30 103 H -1.6378 13.1622 26.7634 0
M  V30 104 C -3.9785 12.2512 31.0981 0
M  V30 105 H -2.9326 14.1010 30.8140 0
M  V30 106 C -3.7063 11.2184 33.3005 0
M  V30 107 H -2.4496 12.3034 34.6687 0
M  V30 108 N -0.4121 4.6409 28.9379 0
M  V30 109 H 1.5212 5.0716 29.5339 0
M  V30 110 H -1.9968 5.5641 30.8295 0
M  V30 111 N -3.2789 6.6902 34.3924 0
M  V30 112 H -3.6185 6.2893 32.3919 0
M  V30 113 C -0.5201 4.9968 26.4753 0
M  V30 114 C -4.1762 13.0913 26.4675 0
M  V30 115 C -4.5938 12.2197 29.7633 0
M  V30 116 C -4.2457 11.2197 32.0060 0
M  V30 117 C -4.0046 10.1562 34.2722 0
M  V30 118 C 0.0654 4.1445 27.6477 0
M  V30 119 C -4.7148 6.8150 34.6407 0
M  V30 120 C -0.1832 4.3701 25.1003 0
M  V30 121 H -1.6117 4.9696 26.5753 0
M  V30 122 H -3.6533 14.0504 26.5620 0
M  V30 123 C -4.8910 13.1074 25.0944 0
M  V30 124 C -5.2040 13.0160 27.6429 0
M  V30 125 N -4.5317 13.1854 28.9307 0
M  V30 126 H -5.1211 11.2964 29.5328 0
M  V30 127 H -4.8960 10.4050 31.7133 0
M  V30 128 N -4.8669 9.2358 34.0748 0
M  V30 129 H -3.4287 10.2149 35.1934 0
M  V30 130 C -0.3570 2.6597 27.5304 0
M  V30 131 H 1.1569 4.1707 27.5470 0
M  V30 132 C -5.0677 8.2537 35.1399 0
M  V30 133 C -5.1050 5.7437 35.6880 0
M  V30 134 H -5.3292 6.6259 33.7524 0
M  V30 135 H 0.8906 4.4430 24.9169 0
M  V30 136 H -0.6630 4.9412 24.3041 0
M  V30 137 C -0.6076 2.8914 25.0044 0
M  V30 138 H -5.3660 12.1406 24.9164 0
M  V30 139 H -4.1586 13.2334 24.2956 0
M  V30 140 C -5.9589 14.2148 24.9967 0
M  V30 141 C -6.2778 14.1248 27.5241 0
M  V30 142 H -5.7284 12.0578 27.5472 0
M  V30 143 C -0.0168 2.0552 26.1539 0
M  V30 144 H 0.1222 2.0739 28.3162 0
M  V30 145 H -1.4315 2.5691 27.7013 0
M  V30 146 H -4.4541 8.4423 36.0288 0
M  V30 147 C -6.5457 8.3468 35.5913 0
M  V30 148 C -6.5784 5.8550 36.1271 0
M  V30 149 H -4.9166 4.7465 35.2875 0
M  V30 150 H -4.4652 5.8398 36.5674 0
M  V30 151 H -1.6967 2.8227 25.0258 0
M  V30 152 H -0.2971 2.4766 24.0442 0
M  V30 153 H -5.4729 15.1919 25.0124 0
M  V30 154 H -6.4761 14.1495 24.0382 0
M  V30 155 C -6.9753 14.1274 26.1495 0
M  V30 156 H -7.0227 14.0068 28.3125 0
M  V30 157 H -5.8175 15.1009 27.6897 0
M  V30 158 H 1.0671 1.9940 26.0406 0
M  V30 159 H -0.3854 1.0298 26.0964 0
M  V30 160 H -6.7468 9.3371 36.0026 0
M  V30 161 H -7.2015 8.2428 34.7246 0
M  V30 162 C -6.9158 7.2701 36.6304 0
M  V30 163 H -7.2288 5.6018 35.2880 0
M  V30 164 H -6.7908 5.1218 36.9067 0
M  V30 165 H -7.6780 14.9600 26.0904 0
M  V30 166 H -7.5717 13.2197 26.0419 0
M  V30 167 H -6.3805 7.4632 37.5618 0
M  V30 168 H -7.9776 7.3360 36.8725 0
M  V30 END ATOM
M  V30 BEGIN BOND
M  V30 0 1 2 1
M  V30 1 1 3 1
M  V30 2 1 4 1
M  V30 3 1 5 2
M  V30 4 1 6 2
M  V30 5 1 7 3
M  V30 6 1 8 3
M  V30 7 1 9 5
M  V30 8 1 10 5
M  V30 9 1 11 6
M  V30 10 1 11 8
M  V30 11 1 12 6
M  V30 12 1 13 7
M  V30 13 1 14 7
M  V30 14 1 15 8
M  V30 15 1 16 9
M  V30 16 1 17 11
M  V30 17 1 18 13
M  V30 18 1 19 16
M  V30 19 1 20 16
M  V30 20 1 21 16
M  V30 21 1 22 17
M  V30 22 1 23 17
M  V30 23 1 24 18
M  V30 24 1 25 18
M  V30 25 1 26 18
M  V30 26 1 27 19
M  V30 27 1 28 19
M  V30 28 1 29 19
M  V30 29 1 30 20
M  V30 30 1 31 20
M  V30 31 1 32 20
M  V30 32 1 33 22
M  V30 33 1 34 24
M  V30 34 1 35 24
M  V30 35 1 36 24
M  V30 36 1 37 25
M  V30 37 1 38 25
M  V30 38 1 39 25
M  V30 39 1 40 27
M  V30 40 1 41 29
M  V30 41 1 42 29
M  V30 42 1 43 29
M  V30 43 1 43 30
M  V30 44 1 44 30
M  V30 45 1 45 30
M  V30 46 1 46 33
M  V30 47 1 47 33
M  V30 48 1 48 33
M  V30 49 1 49 34
M  V30 50 1 50 36
M  V30 51 1 51 36
M  V30 52 1 52 36
M  V30 53 1 52 37
M  V30 54 1 53 37
M  V30 55 1 54 37
M  V30 56 1 55 40
M  V30 57 1 56 40
M  V30 58 1 57 43
M  V30 59 1 58 43
M  V30 60 1 59 46
M  V30 61 1 60 46
M  V30 62 1 61 46
M  V30 63 1 62 48
M  V30 64 1 63 48
M  V30 65 1 64 48
M  V30 66 1 65 49
M  V30 67 1 66 49
M  V30 68 1 67 52
M  V30 69 1 68 52
M  V30 70 1 69 55
M  V30 71 1 70 55
M  V30 72 1 71 59
M  V30 73 1 72 64
M  V30 74 1 72 60
M  V30 75 1 73 60
M  V30 76 1 74 60
M  V30 77 1 75 64
M  V30 78 1 76 64
M  V30 79 1 77 65
M  V30 80 1 78 65
M  V30 81 1 79 69
M  V30 82 1 80 69
M  V30 83 1 81 70
M  V30 84 1 82 70
M  V30 85 1 83 71
M  V30 86 1 84 71
M  V30 87 1 85 72
M  V30 88 1 86 72
M  V30 89 1 87 77
M  V30 90 1 88 77
M  V30 91 1 89 78
M  V30 92 1 90 78
M  V30 93 1 91 79
M  V30 94 1 92 79
M  V30 95 1 92 81
M  V30 96 1 93 81
M  V30 97 1 94 83
M  V30 98 1 95 83
M  V30 99 1 96 87
M  V30 100 1 97 87
M  V30 101 1 97 89
M  V30 102 1 98 89
M  V30 103 1 99 91
M  V30 104 1 100 91
M  V30 105 1 101 92
M  V30 106 1 102 93
M  V30 107 1 103 93
M  V30 108 1 104 94
M  V30 109 1 105 94
M  V30 110 1 106 95
M  V30 111 1 107 95
M  V30 112 1 108 96
M  V30 113 1 109 96
M  V30 114 1 110 97
M  V30 115 1 111 98
M  V30 116 1 112 98
M  V30 117 1 113 99
M  V30 118 1 114 102
M  V30 119 1 115 104
M  V30 120 1 116 104
M  V30 121 1 116 106
M  V30 122 1 117 106
M  V30 123 1 118 113
M  V30 124 1 118 108
M  V30 125 1 119 111
M  V30 126 1 120 113
M  V30 127 1 121 113
M  V30 128 1 122 114
M  V30 129 1 123 114
M  V30 130 1 124 114
M  V30 131 1 125 124
M  V30 132 1 125 115
M  V30 133 1 126 115
M  V30 134 1 127 116
M  V30 135 1 128 117
M  V30 136 1 129 117
M  V30 137 1 130 118
M  V30 138 1 131 118
M  V30 139 1 132 128
M  V30 140 1 132 119
M  V30 141 1 133 119
M  V30 142 1 134 119
M  V30 143 1 135 120
M  V30 144 1 136 120
M  V30 145 1 137 120
M  V30 146 1 138 123
M  V30 147 1 139 123
M  V30 148 1 140 123
M  V30 149 1 141 124
M  V30 150 1 142 124
M  V30 151 1 143 137
M  V30 152 1 143 130
M  V30 153 1 144 130
M  V30 154 1 145 130
M  V30 155 1 146 132
M  V30 156 1 147 132
M  V30 157 1 148 133
M  V30 158 1 149 133
M  V30 159 1 150 133
M  V30 160 1 151 137
M  V30 161 1 152 137
M  V30 162 1 153 140
M  V30 163 1 154 140
M  V30 164 1 155 140
M  V30 165 1 155 141
M  V30 166 1 156 141
M  V30 167 1 157 141
M  V30 168 1 158 143
M  V30 169 1 159 143
M  V30 170 1 160 147
M  V30 171 1 161 147
M  V30 172 1 162 148
M  V30 173 1 162 147
M  V30 174 1 163 148
M  V30 175 1 164 148
M  V30 176 1 165 155
M  V30 177 1 166 155
M  V30 178 1 167 162
M  V30 179 1 168 162
M  V30 END BOND
M  V30 END CTAB
M  END

$$$$
