
     RDKit          3D

  0  0  0  0  0  0  0  0  0  0999 V3000
M  V30 BEGIN CTAB
M  V30 COUNTS 216 234 0 0 0
M  V30 BEGIN ATOM
M  V30 1 C 3.9084 5.2624 11.0099 0
M  V30 2 C 3.9943 3.7771 10.6056 0
M  V30 3 C 4.5329 6.1894 9.9457 0
M  V30 4 H 2.8677 5.5417 11.1812 0
M  V30 5 H 4.4203 5.4084 11.9628 0
M  V30 6 H 3.6173 3.1490 11.4142 0
M  V30 7 H 3.3383 3.5957 9.7524 0
M  V30 8 C 5.4345 3.3576 10.2425 0
M  V30 9 C 5.9832 5.7796 9.5990 0
M  V30 10 H 4.5117 7.2212 10.2991 0
M  V30 11 H 3.9184 6.1665 9.0438 0
M  V30 12 H 5.4402 2.3227 9.8972 0
M  V30 13 H 6.0527 3.3790 11.1420 0
M  V30 14 C 6.0519 4.2775 9.1648 0
M  V30 15 N 6.4726 6.6436 8.5227 0
M  V30 16 H 6.5665 5.8655 10.5236 0
M  V30 17 N 7.4373 3.8611 8.9363 0
M  V30 18 H 5.4194 4.1726 8.2751 0
M  V30 19 C 7.4685 7.3988 8.7850 0
M  V30 20 C 7.8047 3.7316 7.7199 0
M  V30 21 C 8.1379 8.2507 7.7929 0
M  V30 22 H 7.8987 7.4551 9.7827 0
M  V30 23 C 9.1672 3.3864 7.2935 0
M  V30 24 H 7.1115 3.8944 6.8971 0
M  V30 25 C 9.0363 9.2345 8.2219 0
M  V30 26 C 7.9473 8.0790 6.4138 0
M  V30 27 C 10.2111 3.1804 8.2047 0
M  V30 28 C 9.4532 3.2999 5.9265 0
M  V30 29 H 9.2128 9.3757 9.2808 0
M  V30 30 C 9.7341 10.0372 7.3101 0
M  V30 31 H 7.2785 7.3000 6.0762 0
M  V30 32 C 8.6349 8.8521 5.4682 0
M  V30 33 H 10.0003 3.2583 9.2639 0
M  V30 34 C 11.5126 2.8967 7.7749 0
M  V30 35 C 10.7441 3.0355 5.4506 0
M  V30 36 H 8.6564 3.4519 5.2125 0
M  V30 37 C 9.5114 9.8362 5.9434 0
M  V30 38 C 10.7155 11.0438 7.7355 0
M  V30 39 C 8.4655 8.6199 3.9982 0
M  V30 40 C 11.7572 2.8232 6.3957 0
M  V30 41 C 12.5845 2.7394 8.7671 0
M  V30 42 C 11.0303 3.0114 3.9805 0
M  V30 43 H 10.0393 10.4518 5.2291 0
M  V30 44 N 11.0153 11.2948 8.9514 0
M  V30 45 H 11.2005 11.5644 6.9122 0
M  V30 46 C 9.5231 8.8597 3.1096 0
M  V30 47 C 7.2549 8.1481 3.4730 0
M  V30 48 H 12.7664 2.6355 6.0577 0
M  V30 49 N 13.7370 2.2561 8.5038 0
M  V30 50 H 12.3198 3.0795 9.7660 0
M  V30 51 C 10.2936 3.8108 3.0951 0
M  V30 52 C 12.0449 2.2019 3.4521 0
M  V30 53 C 12.0689 12.2865 9.1783 0
M  V30 54 H 10.4838 9.1953 3.4707 0
M  V30 55 C 9.3726 8.6487 1.7427 0
M  V30 56 C 7.1093 7.9178 2.1065 0
M  V30 57 H 6.4109 7.9642 4.1212 0
M  V30 58 C 14.7287 2.2598 9.5814 0
M  V30 59 H 9.5220 4.4729 3.4589 0
M  V30 60 C 10.5520 3.7921 1.7282 0
M  V30 61 C 12.3176 2.1971 2.0856 0
M  V30 62 H 12.6265 1.5606 4.0977 0
M  V30 63 C 13.4064 11.5947 9.6050 0
M  V30 64 C 11.5847 13.2776 10.2609 0
M  V30 65 H 12.2902 12.8895 8.2894 0
M  V30 66 H 10.2100 8.8318 1.0844 0
M  V30 67 C 8.1659 8.1706 1.2274 0
M  V30 68 H 6.1643 7.5558 1.7282 0
M  V30 69 H 14.3613 2.7180 10.5075 0
M  V30 70 C 15.0986 0.7975 9.9224 0
M  V30 71 C 15.9957 3.0725 9.1527 0
M  V30 72 H 9.9745 4.4283 1.0726 0
M  V30 73 C 11.5702 2.9891 1.2097 0
M  V30 74 H 13.1042 1.5620 1.7049 0
M  V30 75 N 13.9062 10.7422 8.5244 0
M  V30 76 H 13.1932 11.0438 10.5290 0
M  V30 77 C 14.4870 12.6456 9.9503 0
M  V30 78 C 12.6689 14.3149 10.6226 0
M  V30 79 H 10.6838 13.7904 9.9210 0
M  V30 80 H 11.2984 12.7288 11.1600 0
M  V30 81 C 8.0264 7.9129 -0.2300 0
M  V30 82 H 14.2151 0.2615 10.2720 0
M  V30 83 H 15.4271 0.2807 9.0188 0
M  V30 84 C 16.2119 0.7156 10.9880 0
M  V30 85 N 15.6637 4.4813 8.9303 0
M  V30 86 C 17.0994 2.9931 10.2318 0
M  V30 87 H 16.4042 2.5812 8.2613 0
M  V30 88 C 11.8637 3.0042 -0.2475 0
M  V30 89 C 14.0637 9.5014 8.7826 0
M  V30 90 H 15.3932 12.1478 10.2984 0
M  V30 91 H 14.7702 13.1921 9.0489 0
M  V30 92 C 14.0002 13.6463 11.0195 0
M  V30 93 H 12.3162 14.9528 11.4345 0
M  V30 94 H 12.8358 14.9764 9.7707 0
M  V30 95 C 7.5509 6.6820 -0.6901 0
M  V30 96 C 8.4071 8.8764 -1.1693 0
M  V30 97 H 15.8280 1.0818 11.9419 0
M  V30 98 C 17.4558 1.5346 10.5892 0
M  V30 99 H 16.4903 -0.3260 11.1553 0
M  V30 100 C 15.5931 4.8697 7.7156 0
M  V30 101 H 17.9933 3.5171 9.8902 0
M  V30 102 H 16.7704 3.5138 11.1330 0
M  V30 103 C 13.1676 3.2106 -0.7061 0
M  V30 104 C 10.8393 2.8567 -1.1880 0
M  V30 105 C 14.4638 8.4986 7.7864 0
M  V30 106 H 13.9009 9.0979 9.7798 0
M  V30 107 H 13.8748 13.1271 11.9714 0
M  V30 108 H 14.7626 14.4080 11.1900 0
M  V30 109 H 7.2738 5.9332 0.0394 0
M  V30 110 C 7.4820 6.3871 -2.0568 0
M  V30 111 C 8.3379 8.6268 -2.5473 0
M  V30 112 H 8.7750 9.8316 -0.8195 0
M  V30 113 H 18.1869 1.5188 11.3988 0
M  V30 114 H 17.9423 1.0609 9.7347 0
M  V30 115 C 15.2115 6.2243 7.2951 0
M  V30 116 H 15.7991 4.1916 6.8899 0
M  V30 117 H 13.9543 3.3415 0.0243 0
M  V30 118 C 13.4579 3.3058 -2.0723 0
M  V30 119 C 11.0905 2.9291 -2.5656 0
M  V30 120 H 9.8280 2.6956 -0.8396 0
M  V30 121 C 14.8680 7.2275 8.2107 0
M  V30 122 C 14.4060 8.7532 6.4082 0
M  V30 123 C 7.8751 7.3749 -2.9718 0
M  V30 124 C 7.0551 5.0474 -2.4814 0
M  V30 125 C 8.7791 9.6157 -3.5403 0
M  V30 126 C 15.1441 6.5213 5.9294 0
M  V30 127 C 12.4062 3.1569 -2.9884 0
M  V30 128 C 14.8314 3.6089 -2.4950 0
M  V30 129 C 10.0141 2.8221 -3.5597 0
M  V30 130 H 14.9053 7.0012 9.2689 0
M  V30 131 C 14.7285 7.7737 5.4589 0
M  V30 132 H 14.0645 9.7227 6.0743 0
M  V30 133 H 7.8321 7.1509 -4.0302 0
M  V30 134 N 6.9814 4.6661 -3.6981 0
M  V30 135 H 6.8186 4.3754 -1.6590 0
M  V30 136 N 8.9841 10.8483 -3.2762 0
M  V30 137 H 8.9268 9.2101 -4.5389 0
M  V30 138 H 15.4107 5.7582 5.2121 0
M  V30 139 H 12.6219 3.2376 -4.0464 0
M  V30 140 N 15.1983 3.7423 -3.7111 0
M  V30 141 H 15.5316 3.7362 -1.6720 0
M  V30 142 N 8.8436 2.3829 -3.2984 0
M  V30 143 H 10.2922 3.1572 -4.5566 0
M  V30 144 C 14.6069 8.0402 3.9901 0
M  V30 145 C 6.6081 3.2699 -3.9316 0
M  V30 146 C 9.5144 11.6897 -4.3507 0
M  V30 147 C 16.5938 4.1191 -3.9430 0
M  V30 148 C 7.8507 2.4271 -4.3736 0
M  V30 149 C 14.8021 9.3258 3.4675 0
M  V30 150 C 14.2821 7.0068 3.1000 0
M  V30 151 H 6.1902 2.7818 -3.0429 0
M  V30 152 C 5.4985 3.2324 -5.0070 0
M  V30 153 C 10.8666 12.3440 -3.9114 0
M  V30 154 C 8.4647 12.7703 -4.7000 0
M  V30 155 H 9.7191 11.1349 -5.2741 0
M  V30 156 H 17.2257 3.9972 -3.0550 0
M  V30 157 C 17.1812 3.1825 -5.0233 0
M  V30 158 C 16.7013 5.6189 -4.3775 0
M  V30 159 C 7.4390 0.9797 -4.7298 0
M  V30 160 H 8.2299 2.8857 -5.2947 0
M  V30 161 H 15.0675 10.1470 4.1169 0
M  V30 162 C 14.6701 9.5707 2.1021 0
M  V30 163 C 14.1693 7.2463 1.7341 0
M  V30 164 H 14.0935 6.0061 3.4593 0
M  V30 165 H 4.6206 3.7769 -4.6561 0
M  V30 166 H 5.8382 3.7535 -5.9040 0
M  V30 167 C 5.1008 1.7883 -5.3789 0
M  V30 168 N 11.8907 11.3226 -3.6849 0
M  V30 169 H 10.6556 12.9468 -3.0199 0
M  V30 170 C 11.3845 13.3276 -4.9853 0
M  V30 171 C 8.9859 13.7624 -5.7611 0
M  V30 172 H 7.5484 12.2982 -5.0572 0
M  V30 173 H 8.1888 13.3205 -3.7985 0
M  V30 174 H 17.1494 2.1483 -4.6775 0
M  V30 175 H 16.5596 3.2202 -5.9198 0
M  V30 176 C 18.6303 3.5629 -5.3940 0
M  V30 177 N 16.2435 6.4952 -3.2976 0
M  V30 178 C 18.1603 5.9886 -4.7329 0
M  V30 179 H 16.1138 5.7222 -5.2977 0
M  V30 180 H 7.0991 0.4619 -3.8310 0
M  V30 181 C 6.3203 0.9405 -5.7921 0
M  V30 182 H 8.3060 0.4231 -5.0886 0
M  V30 183 H 14.8276 10.5711 1.7259 0
M  V30 184 C 14.3567 8.5317 1.2215 0
M  V30 185 H 13.9061 6.4314 1.0748 0
M  V30 186 H 4.3662 1.8014 -6.1855 0
M  V30 187 H 4.6050 1.3184 -4.5275 0
M  V30 188 C 12.1891 11.0645 -2.4702 0
M  V30 189 H 12.2958 13.8153 -4.6359 0
M  V30 190 H 11.6635 12.7760 -5.8850 0
M  V30 191 C 10.3307 14.3944 -5.3503 0
M  V30 192 H 8.2449 14.5443 -5.9343 0
M  V30 193 H 9.1054 13.2440 -6.7141 0
M  V30 194 H 18.9864 2.9242 -6.2037 0
M  V30 195 H 19.2855 3.3650 -4.5438 0
M  V30 196 C 18.7534 5.0449 -5.8003 0
M  V30 197 C 15.2781 7.2908 -3.5544 0
M  V30 198 H 18.2079 7.0195 -5.0866 0
M  V30 199 H 18.7792 5.9490 -3.8346 0
M  V30 200 H 6.0129 -0.0912 -5.9702 0
M  V30 201 H 6.7106 1.3070 -6.7433 0
M  V30 202 C 14.1967 8.7853 -0.2344 0
M  V30 203 C 13.1383 10.0244 -2.0529 0
M  V30 204 H 11.7282 11.6025 -1.6443 0
M  V30 205 H 10.7061 15.0268 -6.1562 0
M  V30 206 H 10.1740 15.0559 -4.4964 0
M  V30 207 H 18.2400 5.2039 -6.7503 0
M  V30 208 H 19.8002 5.2962 -5.9779 0
M  V30 209 C 14.6479 8.1648 -2.5557 0
M  V30 210 H 14.8484 7.3693 -4.5508 0
M  V30 211 C 13.3661 9.8137 -0.6878 0
M  V30 212 C 14.8362 7.9763 -1.1791 0
M  V30 213 C 13.7927 9.1924 -2.9732 0
M  V30 214 H 12.8596 10.4259 0.0459 0
M  V30 215 H 15.4811 7.1791 -0.8347 0
M  V30 216 H 13.6147 9.3442 -4.0304 0
M  V30 END ATOM
M  V30 BEGIN BOND
M  V30 0 1 2 1
M  V30 1 1 3 1
M  V30 2 1 4 1
M  V30 3 1 5 1
M  V30 4 1 6 2
M  V30 5 1 7 2
M  V30 6 1 8 2
M  V30 7 1 9 3
M  V30 8 1 10 3
M  V30 9 1 11 3
M  V30 10 1 12 8
M  V30 11 1 13 8
M  V30 12 1 14 8
M  V30 13 1 14 9
M  V30 14 1 15 9
M  V30 15 1 16 9
M  V30 16 1 17 14
M  V30 17 1 18 14
M  V30 18 1 19 15
M  V30 19 1 20 17
M  V30 20 1 21 19
M  V30 21 1 22 19
M  V30 22 1 23 20
M  V30 23 1 24 20
M  V30 24 1 25 21
M  V30 25 1 26 21
M  V30 26 1 27 23
M  V30 27 1 28 23
M  V30 28 1 29 25
M  V30 29 1 30 25
M  V30 30 1 31 26
M  V30 31 1 32 26
M  V30 32 1 33 27
M  V30 33 1 34 27
M  V30 34 1 35 28
M  V30 35 1 36 28
M  V30 36 1 37 32
M  V30 37 1 37 30
M  V30 38 1 38 30
M  V30 39 1 39 32
M  V30 40 1 40 35
M  V30 41 1 40 34
M  V30 42 1 41 34
M  V30 43 1 42 35
M  V30 44 1 43 37
M  V30 45 1 44 38
M  V30 46 1 45 38
M  V30 47 1 46 39
M  V30 48 1 47 39
M  V30 49 1 48 40
M  V30 50 1 49 41
M  V30 51 1 50 41
M  V30 52 1 51 42
M  V30 53 1 52 42
M  V30 54 1 53 44
M  V30 55 1 54 46
M  V30 56 1 55 46
M  V30 57 1 56 47
M  V30 58 1 57 47
M  V30 59 1 58 49
M  V30 60 1 59 51
M  V30 61 1 60 51
M  V30 62 1 61 52
M  V30 63 1 62 52
M  V30 64 1 63 53
M  V30 65 1 64 53
M  V30 66 1 65 53
M  V30 67 1 66 55
M  V30 68 1 67 56
M  V30 69 1 67 55
M  V30 70 1 68 56
M  V30 71 1 69 58
M  V30 72 1 70 58
M  V30 73 1 71 58
M  V30 74 1 72 60
M  V30 75 1 73 61
M  V30 76 1 73 60
M  V30 77 1 74 61
M  V30 78 1 75 63
M  V30 79 1 76 63
M  V30 80 1 77 63
M  V30 81 1 78 64
M  V30 82 1 79 64
M  V30 83 1 80 64
M  V30 84 1 81 67
M  V30 85 1 82 70
M  V30 86 1 83 70
M  V30 87 1 84 70
M  V30 88 1 85 71
M  V30 89 1 86 71
M  V30 90 1 87 71
M  V30 91 1 88 73
M  V30 92 1 89 75
M  V30 93 1 90 77
M  V30 94 1 91 77
M  V30 95 1 92 78
M  V30 96 1 92 77
M  V30 97 1 93 78
M  V30 98 1 94 78
M  V30 99 1 95 81
M  V30 100 1 96 81
M  V30 101 1 97 84
M  V30 102 1 98 84
M  V30 103 1 98 86
M  V30 104 1 99 84
M  V30 105 1 100 85
M  V30 106 1 101 86
M  V30 107 1 102 86
M  V30 108 1 103 88
M  V30 109 1 104 88
M  V30 110 1 105 89
M  V30 111 1 106 89
M  V30 112 1 107 92
M  V30 113 1 108 92
M  V30 114 1 109 95
M  V30 115 1 110 95
M  V30 116 1 111 96
M  V30 117 1 112 96
M  V30 118 1 113 98
M  V30 119 1 114 98
M  V30 120 1 115 100
M  V30 121 1 116 100
M  V30 122 1 117 103
M  V30 123 1 118 103
M  V30 124 1 119 104
M  V30 125 1 120 104
M  V30 126 1 121 115
M  V30 127 1 121 105
M  V30 128 1 122 105
M  V30 129 1 123 111
M  V30 130 1 123 110
M  V30 131 1 124 110
M  V30 132 1 125 111
M  V30 133 1 126 115
M  V30 134 1 127 119
M  V30 135 1 127 118
M  V30 136 1 128 118
M  V30 137 1 129 119
M  V30 138 1 130 121
M  V30 139 1 131 126
M  V30 140 1 131 122
M  V30 141 1 132 122
M  V30 142 1 133 123
M  V30 143 1 134 124
M  V30 144 1 135 124
M  V30 145 1 136 125
M  V30 146 1 137 125
M  V30 147 1 138 126
M  V30 148 1 139 127
M  V30 149 1 140 128
M  V30 150 1 141 128
M  V30 151 1 142 129
M  V30 152 1 143 129
M  V30 153 1 144 131
M  V30 154 1 145 134
M  V30 155 1 146 136
M  V30 156 1 147 140
M  V30 157 1 148 145
M  V30 158 1 148 142
M  V30 159 1 149 144
M  V30 160 1 150 144
M  V30 161 1 151 145
M  V30 162 1 152 145
M  V30 163 1 153 146
M  V30 164 1 154 146
M  V30 165 1 155 146
M  V30 166 1 156 147
M  V30 167 1 157 147
M  V30 168 1 158 147
M  V30 169 1 159 148
M  V30 170 1 160 148
M  V30 171 1 161 149
M  V30 172 1 162 149
M  V30 173 1 163 150
M  V30 174 1 164 150
M  V30 175 1 165 152
M  V30 176 1 166 152
M  V30 177 1 167 152
M  V30 178 1 168 153
M  V30 179 1 169 153
M  V30 180 1 170 153
M  V30 181 1 171 154
M  V30 182 1 172 154
M  V30 183 1 173 154
M  V30 184 1 174 157
M  V30 185 1 175 157
M  V30 186 1 176 157
M  V30 187 1 177 158
M  V30 188 1 178 158
M  V30 189 1 179 158
M  V30 190 1 180 159
M  V30 191 1 181 167
M  V30 192 1 181 159
M  V30 193 1 182 159
M  V30 194 1 183 162
M  V30 195 1 184 163
M  V30 196 1 184 162
M  V30 197 1 185 163
M  V30 198 1 186 167
M  V30 199 1 187 167
M  V30 200 1 188 168
M  V30 201 1 189 170
M  V30 202 1 190 170
M  V30 203 1 191 171
M  V30 204 1 191 170
M  V30 205 1 192 171
M  V30 206 1 193 171
M  V30 207 1 194 176
M  V30 208 1 195 176
M  V30 209 1 196 176
M  V30 210 1 196 178
M  V30 211 1 197 177
M  V30 212 1 198 178
M  V30 213 1 199 178
M  V30 214 1 200 181
M  V30 215 1 201 181
M  V30 216 1 202 184
M  V30 217 1 203 188
M  V30 218 1 204 188
M  V30 219 1 205 191
M  V30 220 1 206 191
M  V30 221 1 207 196
M  V30 222 1 208 196
M  V30 223 1 209 197
M  V30 224 1 210 197
M  V30 225 1 211 203
M  V30 226 1 211 202
M  V30 227 1 212 209
M  V30 228 1 212 202
M  V30 229 1 213 209
M  V30 230 1 213 203
M  V30 231 1 214 211
M  V30 232 1 215 212
M  V30 233 1 216 213
M  V30 END BOND
M  V30 END CTAB
M  END

$$$$
