
     RDKit          3D

  0  0  0  0  0  0  0  0  0  0999 V3000
M  V30 BEGIN CTAB
M  V30 COUNTS 204 216 0 0 0
M  V30 BEGIN ATOM
M  V30 1 C 5.6942 9.9704 2.6926 0
M  V30 2 C 4.3402 10.7152 2.7874 0
M  V30 3 H 5.7186 9.1453 3.4054 0
M  V30 4 H 6.5025 10.6435 2.9843 0
M  V30 5 C 5.9689 9.4359 1.2726 0
M  V30 6 N 4.2023 11.2782 4.1307 0
M  V30 7 H 3.5407 10.0161 2.5340 0
M  V30 8 C 4.2427 11.8490 1.7153 0
M  V30 9 H 6.9565 8.9737 1.2334 0
M  V30 10 H 5.2549 8.6443 1.0383 0
M  V30 11 C 5.8666 10.5486 0.2123 0
M  V30 12 C 3.5130 10.7224 5.0619 0
M  V30 13 N 2.9049 12.4452 1.7041 0
M  V30 14 C 4.5216 11.2987 0.2968 0
M  V30 15 H 5.0409 12.5665 1.9128 0
M  V30 16 H 6.6862 11.2566 0.3478 0
M  V30 17 H 5.9944 10.1256 -0.7853 0
M  V30 18 C 2.8481 9.3449 4.9246 0
M  V30 19 C 3.3005 11.4398 6.3555 0
M  V30 20 C 2.6637 13.6233 2.1549 0
M  V30 21 H 4.5101 12.1153 -0.4267 0
M  V30 22 H 3.7171 10.6231 -0.0001 0
M  V30 23 H 3.3110 8.7142 4.1690 0
M  V30 24 H 1.7988 9.4566 4.6530 0
M  V30 25 H 2.9049 8.7733 5.8502 0
M  V30 26 C 2.3768 10.9960 7.3170 0
M  V30 27 C 3.9997 12.6235 6.6463 0
M  V30 28 C 1.2858 14.1738 2.0769 0
M  V30 29 C 3.7284 14.5536 2.7491 0
M  V30 30 C 2.1492 11.6705 8.5274 0
M  V30 31 H 1.7831 10.1143 7.1262 0
M  V30 32 C 3.8225 13.3375 7.8401 0
M  V30 33 H 4.7222 12.9801 5.9256 0
M  V30 34 C 0.1720 13.3232 2.1184 0
M  V30 35 C 1.0450 15.5474 1.9307 0
M  V30 36 H 4.2788 15.0581 1.9559 0
M  V30 37 H 4.4372 14.0190 3.3799 0
M  V30 38 H 3.2918 15.3277 3.3793 0
M  V30 39 C 2.9105 12.8230 8.7723 0
M  V30 40 C 1.1496 11.1599 9.5069 0
M  V30 41 C 4.5863 14.5771 8.1330 0
M  V30 42 H 0.3566 12.2609 2.1967 0
M  V30 43 C -1.1464 13.8011 2.0739 0
M  V30 44 H 1.8871 16.2217 1.8607 0
M  V30 45 C -0.2483 16.0891 1.8381 0
M  V30 46 H 2.7968 13.3530 9.7077 0
M  V30 47 N 0.8209 9.9174 9.4918 0
M  V30 48 C 0.6091 12.1805 10.5180 0
M  V30 49 N 4.8854 14.8681 9.3476 0
M  V30 50 C 5.0039 15.4143 6.9179 0
M  V30 51 C -1.3216 15.1861 1.9206 0
M  V30 52 C -2.3228 12.8911 2.1696 0
M  V30 53 C -0.4536 17.5629 1.6973 0
M  V30 54 C -0.1219 9.3275 10.4442 0
M  V30 55 H 1.2106 12.1696 11.4261 0
M  V30 56 H -0.4267 11.9925 10.7943 0
M  V30 57 H 0.6288 13.1960 10.1245 0
M  V30 58 C 5.6585 16.0574 9.7117 0
M  V30 59 H 4.3865 15.2073 6.0445 0
M  V30 60 H 6.0345 15.1958 6.6408 0
M  V30 61 H 4.9107 16.4835 7.1036 0
M  V30 62 H -2.3362 15.5543 1.8937 0
M  V30 63 N -3.4605 13.2698 1.7050 0
M  V30 64 C -2.0673 11.5156 2.8014 0
M  V30 65 N 0.5450 18.3605 1.8293 0
M  V30 66 C -1.8903 18.0320 1.4238 0
M  V30 67 H -0.2937 9.9446 11.3274 0
M  V30 68 C 0.5114 8.0199 10.9753 0
M  V30 69 C -1.5042 9.0480 9.7670 0
M  V30 70 C 4.7482 17.1214 10.4065 0
M  V30 71 C 6.8019 15.6058 10.6504 0
M  V30 72 H 6.1487 16.5388 8.8638 0
M  V30 73 C -4.6549 12.4234 1.7239 0
M  V30 74 H -1.8080 10.7875 2.0337 0
M  V30 75 H -2.9264 11.1367 3.3517 0
M  V30 76 H -1.2490 11.5402 3.5201 0
M  V30 77 C 0.4136 19.8174 1.8512 0
M  V30 78 H -2.4609 18.0653 2.3514 0
M  V30 79 H -2.4052 17.3736 0.7253 0
M  V30 80 H -1.9453 19.0221 0.9771 0
M  V30 81 H 0.7855 7.3769 10.1367 0
M  V30 82 H 1.4424 8.2443 11.4982 0
M  V30 83 C -0.4374 7.2464 11.9134 0
M  V30 84 N -2.1478 10.3074 9.3916 0
M  V30 85 C -2.4464 8.2697 10.7176 0
M  V30 86 H -1.2757 8.4138 8.9082 0
M  V30 87 N 3.7533 17.6265 9.4602 0
M  V30 88 H 4.3032 16.6010 11.2568 0
M  V30 89 C 5.5835 18.3105 10.9398 0
M  V30 90 C 7.6238 16.7956 11.1872 0
M  V30 91 H 7.4598 14.9111 10.1260 0
M  V30 92 H 6.3875 15.0490 11.4931 0
M  V30 93 C -5.6720 12.8966 2.8169 0
M  V30 94 C -5.2912 12.4826 0.3156 0
M  V30 95 H -4.4382 11.3683 1.8968 0
M  V30 96 C 1.3490 20.4256 2.9462 0
M  V30 97 C 0.7592 20.3737 0.4483 0
M  V30 98 H -0.5908 20.1506 2.1197 0
M  V30 99 C -1.8010 6.9749 11.2507 0
M  V30 100 H 0.0243 6.3050 12.2153 0
M  V30 101 H -0.5862 7.8180 12.8312 0
M  V30 102 C -2.7693 10.4816 8.2805 0
M  V30 103 H -3.3795 8.0298 10.2065 0
M  V30 104 H -2.7208 8.9060 11.5611 0
M  V30 105 C 2.5220 17.8255 9.7681 0
M  V30 106 H 6.0026 18.8681 10.1002 0
M  V30 107 H 4.9398 19.0103 11.4740 0
M  V30 108 C 6.7290 17.8510 11.8644 0
M  V30 109 H 8.1725 17.2579 10.3647 0
M  V30 110 H 8.3777 16.4393 11.8908 0
M  V30 111 N -5.1295 12.7154 4.1647 0
M  V30 112 H -5.9521 13.9274 2.5955 0
M  V30 113 C -6.9889 12.0903 2.7314 0
M  V30 114 C -6.6135 11.6920 0.2370 0
M  V30 115 H -4.5893 12.0977 -0.4259 0
M  V30 116 H -5.4795 13.5221 0.0405 0
M  V30 117 N 0.9192 20.0177 4.2854 0
M  V30 118 H 2.3743 20.1378 2.7076 0
M  V30 119 C 1.3297 21.9716 2.8982 0
M  V30 120 C 0.7495 21.9153 0.4126 0
M  V30 121 H 0.0580 19.9860 -0.2917 0
M  V30 122 H 1.7446 20.0147 0.1456 0
M  V30 123 H -1.6712 6.2687 10.4287 0
M  V30 124 H -2.4711 6.4906 11.9626 0
M  V30 125 C -3.2663 11.8434 7.9148 0
M  V30 126 C -3.0212 9.3626 7.2592 0
M  V30 127 C 1.5418 18.1921 8.7010 0
M  V30 128 C 1.9647 17.6827 11.1921 0
M  V30 129 H 7.3300 18.7097 12.1674 0
M  V30 130 H 6.3098 17.4360 12.7827 0
M  V30 131 C -4.7066 13.6900 4.8888 0
M  V30 132 H -7.7049 12.4695 3.4621 0
M  V30 133 H -6.8017 11.0502 3.0053 0
M  V30 134 C -7.6130 12.1367 1.3215 0
M  V30 135 H -6.4063 10.6262 0.3492 0
M  V30 136 H -7.0594 11.8103 -0.7517 0
M  V30 137 C 1.5757 19.1780 5.0018 0
M  V30 138 H 2.0346 22.3742 3.6272 0
M  V30 139 H 0.3456 22.3365 3.1985 0
M  V30 140 C 1.6637 22.5190 1.4954 0
M  V30 141 H 1.0577 22.2667 -0.5733 0
M  V30 142 H -0.2708 22.2753 0.5567 0
M  V30 143 C -3.2264 12.8984 8.8425 0
M  V30 144 C -3.7567 12.1448 6.6330 0
M  V30 145 H -4.0078 9.4437 6.8047 0
M  V30 146 H -2.9865 8.3653 7.6916 0
M  V30 147 H -2.2728 9.3967 6.4681 0
M  V30 148 C 0.1553 18.2095 8.9284 0
M  V30 149 C 1.9754 18.5012 7.4004 0
M  V30 150 H 1.2211 18.4468 11.4151 0
M  V30 151 H 2.7222 17.7868 11.9657 0
M  V30 152 H 1.5034 16.7042 11.3219 0
M  V30 153 C -4.2074 13.4235 6.2673 0
M  V30 154 C -4.7117 15.1588 4.4418 0
M  V30 155 H -7.9524 13.1519 1.1082 0
M  V30 156 H -8.5036 11.5073 1.2880 0
M  V30 157 C 1.0925 18.8378 6.3646 0
M  V30 158 C 2.8831 18.5072 4.5634 0
M  V30 159 H 2.7054 22.2962 1.2574 0
M  V30 160 H 1.5788 23.6067 1.4908 0
M  V30 161 H -2.8617 12.6872 9.8379 0
M  V30 162 C -3.6661 14.1956 8.5404 0
M  V30 163 H -3.7724 11.3802 5.8706 0
M  V30 164 C -0.7797 18.5329 7.9316 0
M  V30 165 H -0.2330 17.9408 9.8995 0
M  V30 166 H 3.0381 18.5020 7.2026 0
M  V30 167 C -4.1775 14.4200 7.2542 0
M  V30 168 H -3.9359 15.7406 4.9378 0
M  V30 169 H -5.6696 15.6228 4.6737 0
M  V30 170 H -4.5276 15.2770 3.3756 0
M  V30 171 C -0.2759 18.8721 6.6668 0
M  V30 172 H 3.0922 17.6027 5.1336 0
M  V30 173 H 3.7258 19.1814 4.7119 0
M  V30 174 H 2.8585 18.2029 3.5178 0
M  V30 175 C -3.6245 15.2935 9.5421 0
M  V30 176 C -2.2407 18.5273 8.2260 0
M  V30 177 H -4.5522 15.4081 7.0289 0
M  V30 178 H -0.9543 19.1661 5.8783 0
M  V30 179 N -4.4867 16.2441 9.4825 0
M  V30 180 C -2.5410 15.1822 10.6219 0
M  V30 181 N -2.6462 18.6364 9.4412 0
M  V30 182 C -3.1762 18.4292 7.0123 0
M  V30 183 C -4.5308 17.3396 10.4536 0
M  V30 184 H -2.9543 14.7532 11.5339 0
M  V30 185 H -2.0959 16.1474 10.8600 0
M  V30 186 H -1.7148 14.5434 10.3122 0
M  V30 187 C -4.0619 18.6871 9.8104 0
M  V30 188 H -4.1021 17.9014 7.2318 0
M  V30 189 H -2.7191 17.8859 6.1863 0
M  V30 190 H -3.4327 19.4241 6.6501 0
M  V30 191 H -3.9188 17.1644 11.3397 0
M  V30 192 C -5.9839 17.4504 10.9710 0
M  V30 193 C -4.2456 19.8631 10.7979 0
M  V30 194 H -4.7232 18.9116 8.9723 0
M  V30 195 H -6.6665 17.5691 10.1274 0
M  V30 196 H -6.2744 16.5217 11.4645 0
M  V30 197 C -6.1701 18.6342 11.9424 0
M  V30 198 C -5.6916 19.9626 11.3261 0
M  V30 199 H -3.9662 20.8009 10.3153 0
M  V30 200 H -3.5639 19.7443 11.6422 0
M  V30 201 H -7.2184 18.7150 12.2339 0
M  V30 202 H -5.6150 18.4398 12.8618 0
M  V30 203 H -6.3577 20.2443 10.5087 0
M  V30 204 H -5.7640 20.7631 12.0639 0
M  V30 END ATOM
M  V30 BEGIN BOND
M  V30 0 1 2 1
M  V30 1 1 3 1
M  V30 2 1 4 1
M  V30 3 1 5 1
M  V30 4 1 6 2
M  V30 5 1 7 2
M  V30 6 1 8 2
M  V30 7 1 9 5
M  V30 8 1 10 5
M  V30 9 1 11 5
M  V30 10 1 12 6
M  V30 11 1 13 8
M  V30 12 1 14 8
M  V30 13 1 14 11
M  V30 14 1 15 8
M  V30 15 1 16 11
M  V30 16 1 17 11
M  V30 17 1 18 12
M  V30 18 1 19 12
M  V30 19 1 20 13
M  V30 20 1 21 14
M  V30 21 1 22 14
M  V30 22 1 23 18
M  V30 23 1 24 18
M  V30 24 1 25 18
M  V30 25 1 26 19
M  V30 26 1 27 19
M  V30 27 1 28 20
M  V30 28 1 29 20
M  V30 29 1 30 26
M  V30 30 1 31 26
M  V30 31 1 32 27
M  V30 32 1 33 27
M  V30 33 1 34 28
M  V30 34 1 35 28
M  V30 35 1 36 29
M  V30 36 1 37 29
M  V30 37 1 38 29
M  V30 38 1 39 32
M  V30 39 1 39 30
M  V30 40 1 40 30
M  V30 41 1 41 32
M  V30 42 1 42 34
M  V30 43 1 43 34
M  V30 44 1 44 35
M  V30 45 1 45 35
M  V30 46 1 46 39
M  V30 47 1 47 40
M  V30 48 1 48 40
M  V30 49 1 49 41
M  V30 50 1 50 41
M  V30 51 1 51 45
M  V30 52 1 51 43
M  V30 53 1 52 43
M  V30 54 1 53 45
M  V30 55 1 54 47
M  V30 56 1 55 48
M  V30 57 1 56 48
M  V30 58 1 57 48
M  V30 59 1 58 49
M  V30 60 1 59 50
M  V30 61 1 60 50
M  V30 62 1 61 50
M  V30 63 1 62 51
M  V30 64 1 63 52
M  V30 65 1 64 52
M  V30 66 1 65 53
M  V30 67 1 66 53
M  V30 68 1 67 54
M  V30 69 1 68 54
M  V30 70 1 69 54
M  V30 71 1 70 58
M  V30 72 1 71 58
M  V30 73 1 72 58
M  V30 74 1 73 63
M  V30 75 1 74 64
M  V30 76 1 75 64
M  V30 77 1 76 64
M  V30 78 1 77 65
M  V30 79 1 78 66
M  V30 80 1 79 66
M  V30 81 1 80 66
M  V30 82 1 81 68
M  V30 83 1 82 68
M  V30 84 1 83 68
M  V30 85 1 84 69
M  V30 86 1 85 69
M  V30 87 1 86 69
M  V30 88 1 87 70
M  V30 89 1 88 70
M  V30 90 1 89 70
M  V30 91 1 90 71
M  V30 92 1 91 71
M  V30 93 1 92 71
M  V30 94 1 93 73
M  V30 95 1 94 73
M  V30 96 1 95 73
M  V30 97 1 96 77
M  V30 98 1 97 77
M  V30 99 1 98 77
M  V30 100 1 99 85
M  V30 101 1 99 83
M  V30 102 1 100 83
M  V30 103 1 101 83
M  V30 104 1 102 84
M  V30 105 1 103 85
M  V30 106 1 104 85
M  V30 107 1 105 87
M  V30 108 1 106 89
M  V30 109 1 107 89
M  V30 110 1 108 89
M  V30 111 1 108 90
M  V30 112 1 109 90
M  V30 113 1 110 90
M  V30 114 1 111 93
M  V30 115 1 112 93
M  V30 116 1 113 93
M  V30 117 1 114 94
M  V30 118 1 115 94
M  V30 119 1 116 94
M  V30 120 1 117 96
M  V30 121 1 118 96
M  V30 122 1 119 96
M  V30 123 1 120 97
M  V30 124 1 121 97
M  V30 125 1 122 97
M  V30 126 1 123 99
M  V30 127 1 124 99
M  V30 128 1 125 102
M  V30 129 1 126 102
M  V30 130 1 127 105
M  V30 131 1 128 105
M  V30 132 1 129 108
M  V30 133 1 130 108
M  V30 134 1 131 111
M  V30 135 1 132 113
M  V30 136 1 133 113
M  V30 137 1 134 114
M  V30 138 1 134 113
M  V30 139 1 135 114
M  V30 140 1 136 114
M  V30 141 1 137 117
M  V30 142 1 138 119
M  V30 143 1 139 119
M  V30 144 1 140 120
M  V30 145 1 140 119
M  V30 146 1 141 120
M  V30 147 1 142 120
M  V30 148 1 143 125
M  V30 149 1 144 125
M  V30 150 1 145 126
M  V30 151 1 146 126
M  V30 152 1 147 126
M  V30 153 1 148 127
M  V30 154 1 149 127
M  V30 155 1 150 128
M  V30 156 1 151 128
M  V30 157 1 152 128
M  V30 158 1 153 131
M  V30 159 1 153 144
M  V30 160 1 154 131
M  V30 161 1 155 134
M  V30 162 1 156 134
M  V30 163 1 157 137
M  V30 164 1 157 149
M  V30 165 1 158 137
M  V30 166 1 159 140
M  V30 167 1 160 140
M  V30 168 1 161 143
M  V30 169 1 162 143
M  V30 170 1 163 144
M  V30 171 1 164 148
M  V30 172 1 165 148
M  V30 173 1 166 149
M  V30 174 1 167 162
M  V30 175 1 167 153
M  V30 176 1 168 154
M  V30 177 1 169 154
M  V30 178 1 170 154
M  V30 179 1 171 164
M  V30 180 1 171 157
M  V30 181 1 172 158
M  V30 182 1 173 158
M  V30 183 1 174 158
M  V30 184 1 175 162
M  V30 185 1 176 164
M  V30 186 1 177 167
M  V30 187 1 178 171
M  V30 188 1 179 175
M  V30 189 1 180 175
M  V30 190 1 181 176
M  V30 191 1 182 176
M  V30 192 1 183 179
M  V30 193 1 184 180
M  V30 194 1 185 180
M  V30 195 1 186 180
M  V30 196 1 187 183
M  V30 197 1 187 181
M  V30 198 1 188 182
M  V30 199 1 189 182
M  V30 200 1 190 182
M  V30 201 1 191 183
M  V30 202 1 192 183
M  V30 203 1 193 187
M  V30 204 1 194 187
M  V30 205 1 195 192
M  V30 206 1 196 192
M  V30 207 1 197 192
M  V30 208 1 198 197
M  V30 209 1 198 193
M  V30 210 1 199 193
M  V30 211 1 200 193
M  V30 212 1 201 197
M  V30 213 1 202 197
M  V30 214 1 203 198
M  V30 215 1 204 198
M  V30 END BOND
M  V30 END CTAB
M  END

$$$$
