
     RDKit          3D

  0  0  0  0  0  0  0  0  0  0999 V3000
M  V30 BEGIN CTAB
M  V30 COUNTS 216 234 0 0 0
M  V30 BEGIN ATOM
M  V30 1 C 7.1262 8.2545 13.4987 0
M  V30 2 C 7.5004 6.8988 13.9215 0
M  V30 3 N 7.0672 8.6395 12.2823 0
M  V30 4 H 6.9166 8.9346 14.3218 0
M  V30 5 C 7.8561 5.8981 13.0052 0
M  V30 6 C 7.5574 6.5993 15.2878 0
M  V30 7 C 6.7498 10.0497 12.0502 0
M  V30 8 C 8.2700 4.6286 13.4279 0
M  V30 9 H 7.8227 6.1254 11.9472 0
M  V30 10 C 7.9851 5.3503 15.7462 0
M  V30 11 H 7.3090 7.3571 16.0184 0
M  V30 12 C 8.0259 10.8432 11.6124 0
M  V30 13 C 5.6452 10.1326 10.9722 0
M  V30 14 H 6.3494 10.5524 12.9387 0
M  V30 15 C 8.6733 3.6255 12.4331 0
M  V30 16 C 8.3288 4.3743 14.8055 0
M  V30 17 C 8.1129 5.0849 17.2034 0
M  V30 18 N 9.0176 10.8458 12.6895 0
M  V30 19 H 8.3883 10.3717 10.6911 0
M  V30 20 C 7.6726 12.3065 11.2580 0
M  V30 21 C 5.3059 11.5918 10.6017 0
M  V30 22 H 4.7457 9.6227 11.3201 0
M  V30 23 H 5.9662 9.5997 10.0752 0
M  V30 24 N 8.8293 2.3851 12.6941 0
M  V30 25 H 8.8383 4.0275 11.4357 0
M  V30 26 H 8.6593 3.4049 15.1538 0
M  V30 27 C 9.2992 4.5590 17.7193 0
M  V30 28 C 7.0659 5.3773 18.0816 0
M  V30 29 C 10.1699 10.3602 12.4297 0
M  V30 30 H 8.5618 12.8289 10.9024 0
M  V30 31 H 7.3512 12.8355 12.1570 0
M  V30 32 C 6.5590 12.3915 10.1930 0
M  V30 33 H 4.5736 11.6090 9.7932 0
M  V30 34 H 4.8269 12.0796 11.4525 0
M  V30 35 C 9.3273 1.5267 11.6176 0
M  V30 36 H 10.1297 4.3444 17.0618 0
M  V30 37 C 9.4393 4.3392 19.0860 0
M  V30 38 C 7.2003 5.1384 19.4478 0
M  V30 39 H 6.1364 5.7770 17.7029 0
M  V30 40 C 11.2392 10.2077 13.4255 0
M  V30 41 H 10.4363 10.0161 11.4326 0
M  V30 42 H 6.2931 13.4348 10.0160 0
M  V30 43 H 6.9370 12.0114 9.2422 0
M  V30 44 C 8.2359 0.4901 11.2628 0
M  V30 45 H 9.5555 2.0758 10.6963 0
M  V30 46 C 10.6517 0.8175 12.0563 0
M  V30 47 H 10.3855 3.9650 19.4476 0
M  V30 48 C 8.3904 4.6179 19.9737 0
M  V30 49 H 6.3629 5.3538 20.0950 0
M  V30 50 C 12.5459 9.9311 13.0043 0
M  V30 51 C 10.9879 10.2838 14.8029 0
M  V30 52 H 7.3396 0.9996 10.9066 0
M  V30 53 H 7.9374 -0.0523 12.1619 0
M  V30 54 C 8.7188 -0.5175 10.1984 0
M  V30 55 N 11.7150 1.7968 12.2876 0
M  V30 56 H 10.4159 0.2203 12.9454 0
M  V30 57 C 11.1317 -0.1820 10.9793 0
M  V30 58 C 8.5476 4.3746 21.4433 0
M  V30 59 C 13.5893 9.7385 13.9218 0
M  V30 60 H 12.7606 9.8463 11.9465 0
M  V30 61 H 9.9829 10.4825 15.1501 0
M  V30 62 C 12.0039 10.0932 15.7447 0
M  V30 63 H 8.8605 -0.0004 9.2477 0
M  V30 64 H 7.9475 -1.2686 10.0207 0
M  V30 65 C 10.0367 -1.2044 10.6085 0
M  V30 66 C 12.0205 2.0402 13.5035 0
M  V30 67 H 11.4338 0.3615 10.0820 0
M  V30 68 H 12.0222 -0.7070 11.3280 0
M  V30 69 C 9.3851 3.3563 21.9172 0
M  V30 70 C 7.8877 5.1700 22.3901 0
M  V30 71 C 14.9510 9.3843 13.5005 0
M  V30 72 C 13.2999 9.8389 15.2877 0
M  V30 73 C 11.7087 10.1151 17.2015 0
M  V30 74 H 10.3878 -1.8480 9.8005 0
M  V30 75 H 9.8523 -1.8624 11.4595 0
M  V30 76 C 13.0086 3.0417 13.9249 0
M  V30 77 H 11.5371 1.5189 14.3273 0
M  V30 78 H 9.8910 2.7236 21.2020 0
M  V30 79 C 9.5967 3.1423 23.2837 0
M  V30 80 C 8.0683 4.9865 23.7690 0
M  V30 81 H 7.2500 5.9752 22.0539 0
M  V30 82 N 15.3151 9.2417 12.2846 0
M  V30 83 H 15.6440 9.2267 14.3243 0
M  V30 84 H 14.0795 9.6750 16.0192 0
M  V30 85 C 12.4842 10.8761 18.0804 0
M  V30 86 C 10.6599 9.3502 17.7166 0
M  V30 87 C 13.6962 3.8498 13.0075 0
M  V30 88 C 13.2414 3.2411 15.2909 0
M  V30 89 C 8.9277 3.9678 24.1967 0
M  V30 90 C 10.5383 2.0977 23.7077 0
M  V30 91 C 7.4296 5.8599 24.7626 0
M  V30 92 C 16.6953 8.8114 12.0539 0
M  V30 93 H 13.2952 11.4815 17.7024 0
M  V30 94 C 12.2089 10.8792 19.4463 0
M  V30 95 C 10.3984 9.3387 19.0830 0
M  V30 96 H 10.0598 8.7378 17.0586 0
M  V30 97 H 13.5147 3.7069 11.9497 0
M  V30 98 C 14.5893 4.8430 13.4287 0
M  V30 99 C 14.1099 4.2361 15.7478 0
M  V30 100 H 12.7101 2.6476 16.0224 0
M  V30 101 H 9.0960 3.8164 25.2555 0
M  V30 102 N 10.8262 1.8316 24.9233 0
M  V30 103 H 11.0047 1.5617 22.8836 0
M  V30 104 N 6.4623 6.6518 24.5011 0
M  V30 105 H 7.8564 5.7856 25.7605 0
M  V30 106 C 16.7447 7.3096 11.6159 0
M  V30 107 H 17.3300 8.9065 12.9432 0
M  V30 108 C 17.3208 9.7267 10.9768 0
M  V30 109 H 12.8132 11.4969 20.0941 0
M  V30 110 C 11.1632 10.1080 19.9713 0
M  V30 111 H 9.6015 8.7058 19.4443 0
M  V30 112 C 14.7821 5.0214 14.8060 0
M  V30 113 C 15.2552 5.6935 12.4329 0
M  V30 114 C 14.2770 4.4808 17.2044 0
M  V30 115 C 11.8410 0.8000 25.1486 0
M  V30 116 C 6.0046 7.5316 25.5787 0
M  V30 117 N 16.2512 6.4494 12.6930 0
M  V30 118 H 16.1551 7.2316 10.6947 0
M  V30 119 C 18.1884 6.8836 11.2615 0
M  V30 120 C 18.7542 9.2904 10.6068 0
M  V30 121 H 16.6994 9.7159 10.0794 0
M  V30 122 H 17.3293 10.7605 11.3252 0
M  V30 123 C 10.8734 10.0931 21.4408 0
M  V30 124 H 15.4567 5.7925 15.1531 0
M  V30 125 H 14.8240 5.6347 11.4358 0
M  V30 126 C 14.5501 3.4291 18.0834 0
M  V30 127 C 14.1369 5.7713 17.7193 0
M  V30 128 H 12.0404 0.1917 24.2581 0
M  V30 129 C 11.3183 -0.1755 26.2275 0
M  V30 130 C 13.2034 1.4391 25.5789 0
M  V30 131 C 6.1315 9.0309 25.1478 0
M  V30 132 C 4.5393 7.1771 25.9227 0
M  V30 133 H 6.5831 7.4214 26.5038 0
M  V30 134 H 18.1958 5.8524 10.9053 0
M  V30 135 H 18.8072 6.8965 12.1606 0
M  V30 136 C 18.8195 7.8056 10.1971 0
M  V30 137 H 19.1361 9.9164 9.7990 0
M  V30 138 H 19.4157 9.4604 11.4582 0
M  V30 139 C 9.5727 9.8773 21.9144 0
M  V30 140 C 11.8921 10.2665 22.3877 0
M  V30 141 H 14.6707 2.4243 17.7055 0
M  V30 142 C 14.6897 3.6665 19.4494 0
M  V30 143 C 14.2572 6.0040 19.0857 0
M  V30 144 H 13.9053 6.5968 17.0612 0
M  V30 145 H 11.0515 0.3810 27.1280 0
M  V30 146 H 10.3991 -0.6529 25.8848 0
M  V30 147 C 12.3619 -1.2542 26.5873 0
M  V30 148 N 13.7364 2.2751 24.5012 0
M  V30 149 C 14.2429 0.3469 25.9219 0
M  V30 150 H 13.0104 1.9951 26.5042 0
M  V30 151 N 7.5320 9.3942 24.9213 0
M  V30 152 H 5.5043 9.1620 24.2577 0
M  V30 153 C 5.5488 9.9714 26.2270 0
M  V30 154 C 3.9497 8.1250 26.9885 0
M  V30 155 H 4.4778 6.1460 26.2736 0
M  V30 156 H 3.9272 7.2258 25.0203 0
M  V30 157 H 18.3012 7.6692 9.2462 0
M  V30 158 H 19.8558 7.5138 10.0201 0
M  V30 159 C 9.2814 9.8015 23.2810 0
M  V30 160 H 8.7719 9.7556 21.1991 0
M  V30 161 C 11.6428 10.2021 23.7665 0
M  V30 162 H 12.9084 10.4159 22.0515 0
M  V30 163 H 14.9235 2.8348 20.0974 0
M  V30 164 C 14.5423 4.9575 19.9741 0
M  V30 165 H 14.1059 7.0103 19.4467 0
M  V30 166 C 13.7173 -0.6380 26.9875 0
M  V30 167 H 11.9844 -1.8806 27.3969 0
M  V30 168 H 12.5046 -1.9190 25.7335 0
M  V30 169 C 13.9411 3.5083 24.7630 0
M  V30 170 H 15.1670 0.8088 26.2723 0
M  V30 171 H 14.5060 -0.2073 25.0191 0
M  V30 172 C 7.9060 9.5090 23.7054 0
M  V30 173 H 5.5947 11.0061 25.8842 0
M  V30 174 H 6.1646 9.9241 27.1270 0
M  V30 175 C 4.0931 9.6068 26.5877 0
M  V30 176 H 2.8988 7.8855 27.1582 0
M  V30 177 H 4.4546 7.9574 27.9416 0
M  V30 178 C 10.3308 9.9678 24.1941 0
M  V30 179 C 12.7184 10.3190 24.7601 0
M  V30 180 C 14.6729 5.2167 21.4435 0
M  V30 181 H 13.6110 -0.1174 27.9410 0
M  V30 182 H 14.4500 -1.4287 27.1562 0
M  V30 183 C 14.3796 4.4974 23.7693 0
M  V30 184 H 13.7933 3.9150 25.7611 0
M  V30 185 H 7.2083 9.3723 22.8816 0
M  V30 186 H 3.7396 10.2471 27.3973 0
M  V30 187 H 3.4454 9.8152 25.7342 0
M  V30 188 H 10.1154 9.8981 25.2528 0
M  V30 189 N 13.8881 10.7599 24.4982 0
M  V30 190 H 12.4404 9.9879 25.7584 0
M  V30 191 C 15.1351 6.4515 21.9169 0
M  V30 192 C 14.3127 4.2483 22.3906 0
M  V30 193 C 14.8313 5.7514 24.1966 0
M  V30 194 C 14.8783 10.7186 25.5762 0
M  V30 195 H 15.4308 7.2054 21.2013 0
M  V30 196 C 15.2128 6.7429 23.2833 0
M  V30 197 H 13.9347 3.2932 22.0544 0
M  V30 198 H 14.8767 5.9738 25.2553 0
M  V30 199 C 16.1144 9.8597 25.1472 0
M  V30 200 C 15.3022 12.1658 25.9184 0
M  V30 201 H 14.4937 10.2736 26.5017 0
M  V30 202 C 15.6455 8.0812 23.7069 0
M  V30 203 N 15.7302 8.4645 24.9223 0
M  V30 204 H 16.5415 10.3366 24.2567 0
M  V30 205 C 17.2197 9.8969 26.2269 0
M  V30 206 C 16.4173 12.2053 26.9846 0
M  V30 207 H 14.4391 12.7341 26.2680 0
M  V30 208 H 15.6502 12.6707 25.0153 0
M  V30 209 H 15.8773 8.7525 22.8826 0
M  V30 210 H 16.8710 9.3882 27.1275 0
M  V30 211 H 18.0937 9.3403 25.8854 0
M  V30 212 C 17.6300 11.3409 26.5856 0
M  V30 213 H 16.0196 11.8529 27.9380 0
M  V30 214 H 16.7341 13.2357 27.1528 0
M  V30 215 H 18.3609 11.3291 27.3955 0
M  V30 216 H 18.1341 11.7969 25.7316 0
M  V30 END ATOM
M  V30 BEGIN BOND
M  V30 0 1 2 1
M  V30 1 1 3 1
M  V30 2 1 4 1
M  V30 3 1 5 2
M  V30 4 1 6 2
M  V30 5 1 7 3
M  V30 6 1 8 5
M  V30 7 1 9 5
M  V30 8 1 10 6
M  V30 9 1 11 6
M  V30 10 1 12 7
M  V30 11 1 13 7
M  V30 12 1 14 7
M  V30 13 1 15 8
M  V30 14 1 16 8
M  V30 15 1 16 10
M  V30 16 1 17 10
M  V30 17 1 18 12
M  V30 18 1 19 12
M  V30 19 1 20 12
M  V30 20 1 21 13
M  V30 21 1 22 13
M  V30 22 1 23 13
M  V30 23 1 24 15
M  V30 24 1 25 15
M  V30 25 1 26 16
M  V30 26 1 27 17
M  V30 27 1 28 17
M  V30 28 1 29 18
M  V30 29 1 30 20
M  V30 30 1 31 20
M  V30 31 1 32 21
M  V30 32 1 32 20
M  V30 33 1 33 21
M  V30 34 1 34 21
M  V30 35 1 35 24
M  V30 36 1 36 27
M  V30 37 1 37 27
M  V30 38 1 38 28
M  V30 39 1 39 28
M  V30 40 1 40 29
M  V30 41 1 41 29
M  V30 42 1 42 32
M  V30 43 1 43 32
M  V30 44 1 44 35
M  V30 45 1 45 35
M  V30 46 1 46 35
M  V30 47 1 47 37
M  V30 48 1 48 37
M  V30 49 1 48 38
M  V30 50 1 49 38
M  V30 51 1 50 40
M  V30 52 1 51 40
M  V30 53 1 52 44
M  V30 54 1 53 44
M  V30 55 1 54 44
M  V30 56 1 55 46
M  V30 57 1 56 46
M  V30 58 1 57 46
M  V30 59 1 58 48
M  V30 60 1 59 50
M  V30 61 1 60 50
M  V30 62 1 61 51
M  V30 63 1 62 51
M  V30 64 1 63 54
M  V30 65 1 64 54
M  V30 66 1 65 54
M  V30 67 1 65 57
M  V30 68 1 66 55
M  V30 69 1 67 57
M  V30 70 1 68 57
M  V30 71 1 69 58
M  V30 72 1 70 58
M  V30 73 1 71 59
M  V30 74 1 72 62
M  V30 75 1 72 59
M  V30 76 1 73 62
M  V30 77 1 74 65
M  V30 78 1 75 65
M  V30 79 1 76 66
M  V30 80 1 77 66
M  V30 81 1 78 69
M  V30 82 1 79 69
M  V30 83 1 80 70
M  V30 84 1 81 70
M  V30 85 1 82 71
M  V30 86 1 83 71
M  V30 87 1 84 72
M  V30 88 1 85 73
M  V30 89 1 86 73
M  V30 90 1 87 76
M  V30 91 1 88 76
M  V30 92 1 89 80
M  V30 93 1 89 79
M  V30 94 1 90 79
M  V30 95 1 91 80
M  V30 96 1 92 82
M  V30 97 1 93 85
M  V30 98 1 94 85
M  V30 99 1 95 86
M  V30 100 1 96 86
M  V30 101 1 97 87
M  V30 102 1 98 87
M  V30 103 1 99 88
M  V30 104 1 100 88
M  V30 105 1 101 89
M  V30 106 1 102 90
M  V30 107 1 103 90
M  V30 108 1 104 91
M  V30 109 1 105 91
M  V30 110 1 106 92
M  V30 111 1 107 92
M  V30 112 1 108 92
M  V30 113 1 109 94
M  V30 114 1 110 94
M  V30 115 1 110 95
M  V30 116 1 111 95
M  V30 117 1 112 99
M  V30 118 1 112 98
M  V30 119 1 113 98
M  V30 120 1 114 99
M  V30 121 1 115 102
M  V30 122 1 116 104
M  V30 123 1 117 113
M  V30 124 1 117 106
M  V30 125 1 118 106
M  V30 126 1 119 106
M  V30 127 1 120 108
M  V30 128 1 121 108
M  V30 129 1 122 108
M  V30 130 1 123 110
M  V30 131 1 124 112
M  V30 132 1 125 113
M  V30 133 1 126 114
M  V30 134 1 127 114
M  V30 135 1 128 115
M  V30 136 1 129 115
M  V30 137 1 130 115
M  V30 138 1 131 116
M  V30 139 1 132 116
M  V30 140 1 133 116
M  V30 141 1 134 119
M  V30 142 1 135 119
M  V30 143 1 136 120
M  V30 144 1 136 119
M  V30 145 1 137 120
M  V30 146 1 138 120
M  V30 147 1 139 123
M  V30 148 1 140 123
M  V30 149 1 141 126
M  V30 150 1 142 126
M  V30 151 1 143 127
M  V30 152 1 144 127
M  V30 153 1 145 129
M  V30 154 1 146 129
M  V30 155 1 147 129
M  V30 156 1 148 130
M  V30 157 1 149 130
M  V30 158 1 150 130
M  V30 159 1 151 131
M  V30 160 1 152 131
M  V30 161 1 153 131
M  V30 162 1 154 132
M  V30 163 1 155 132
M  V30 164 1 156 132
M  V30 165 1 157 136
M  V30 166 1 158 136
M  V30 167 1 159 139
M  V30 168 1 160 139
M  V30 169 1 161 140
M  V30 170 1 162 140
M  V30 171 1 163 142
M  V30 172 1 164 143
M  V30 173 1 164 142
M  V30 174 1 165 143
M  V30 175 1 166 149
M  V30 176 1 166 147
M  V30 177 1 167 147
M  V30 178 1 168 147
M  V30 179 1 169 148
M  V30 180 1 170 149
M  V30 181 1 171 149
M  V30 182 1 172 159
M  V30 183 1 172 151
M  V30 184 1 173 153
M  V30 185 1 174 153
M  V30 186 1 175 154
M  V30 187 1 175 153
M  V30 188 1 176 154
M  V30 189 1 177 154
M  V30 190 1 178 159
M  V30 191 1 178 161
M  V30 192 1 179 161
M  V30 193 1 180 164
M  V30 194 1 181 166
M  V30 195 1 182 166
M  V30 196 1 183 169
M  V30 197 1 184 169
M  V30 198 1 185 172
M  V30 199 1 186 175
M  V30 200 1 187 175
M  V30 201 1 188 178
M  V30 202 1 189 179
M  V30 203 1 190 179
M  V30 204 1 191 180
M  V30 205 1 192 183
M  V30 206 1 192 180
M  V30 207 1 193 183
M  V30 208 1 194 189
M  V30 209 1 195 191
M  V30 210 1 196 191
M  V30 211 1 196 193
M  V30 212 1 197 192
M  V30 213 1 198 193
M  V30 214 1 199 194
M  V30 215 1 200 194
M  V30 216 1 201 194
M  V30 217 1 202 196
M  V30 218 1 203 202
M  V30 219 1 203 199
M  V30 220 1 204 199
M  V30 221 1 205 199
M  V30 222 1 206 200
M  V30 223 1 207 200
M  V30 224 1 208 200
M  V30 225 1 209 202
M  V30 226 1 210 205
M  V30 227 1 211 205
M  V30 228 1 212 206
M  V30 229 1 212 205
M  V30 230 1 213 206
M  V30 231 1 214 206
M  V30 232 1 215 212
M  V30 233 1 216 212
M  V30 END BOND
M  V30 END CTAB
M  END

$$$$
