
     RDKit          3D

  0  0  0  0  0  0  0  0  0  0999 V3000
M  V30 BEGIN CTAB
M  V30 COUNTS 216 234 0 0 0
M  V30 BEGIN ATOM
M  V30 1 C 3.4780 10.4660 82.9540 0
M  V30 2 C 4.5320 10.4240 84.0840 0
M  V30 3 H 3.1380 11.3700 82.8670 0
M  V30 4 H 3.8930 10.2150 82.1120 0
M  V30 5 C 2.3400 9.5330 83.2460 0
M  V30 6 C 5.0250 8.9980 84.3020 0
M  V30 7 H 5.2820 10.9940 83.8520 0
M  V30 8 H 4.1440 10.7610 84.9100 0
M  V30 9 H 1.7390 9.5210 82.4890 0
M  V30 10 H 1.8440 9.8670 84.0100 0
M  V30 11 C 2.7970 8.1350 83.5320 0
M  V30 12 H 5.4470 8.6660 83.4870 0
M  V30 13 C 3.8180 8.1130 84.6610 0
M  V30 14 N 5.9920 8.9870 85.3880 0
M  V30 15 H 3.1930 7.7560 82.7330 0
M  V30 16 H 2.0340 7.5900 83.7790 0
M  V30 17 H 3.4010 8.4490 85.4820 0
M  V30 18 N 4.2850 6.7380 84.8790 0
M  V30 19 C 7.1520 8.6320 85.1010 0
M  V30 20 C 4.3070 6.3630 86.0700 0
M  V30 21 C 8.2480 8.4860 86.0820 0
M  V30 22 H 7.3390 8.4440 84.2040 0
M  V30 23 H 3.9340 6.9190 86.7100 0
M  V30 24 C 4.9020 5.0720 86.5060 0
M  V30 25 C 8.0250 8.5280 87.4240 0
M  V30 26 C 9.5610 8.3060 85.6060 0
M  V30 27 C 4.9930 4.8480 87.8340 0
M  V30 28 C 5.3420 4.1270 85.6060 0
M  V30 29 C 9.0330 8.3960 88.3440 0
M  V30 30 H 7.1560 8.6510 87.7320 0
M  V30 31 C 10.5990 8.2150 86.5060 0
M  V30 32 H 9.7250 8.2480 84.6910 0
M  V30 33 H 4.7020 5.5020 88.4250 0
M  V30 34 C 5.5280 3.6250 88.3440 0
M  V30 35 C 5.8420 2.9000 86.0820 0
M  V30 36 H 5.3110 4.2980 84.6910 0
M  V30 37 C 10.3600 8.2480 87.8340 0
M  V30 38 C 8.8230 8.3350 89.8060 0
M  V30 39 C 12.0150 8.0840 86.0700 0
M  V30 40 C 5.9180 2.6860 87.4240 0
M  V30 41 C 5.6870 3.4730 89.8060 0
M  V30 42 C 6.2650 1.8780 85.1010 0
M  V30 43 H 11.0720 8.1730 88.4250 0
M  V30 44 C 9.6540 9.0550 90.6610 0
M  V30 45 C 7.8230 9.1150 90.3750 0
M  V30 46 N 12.3510 7.9160 84.8790 0
M  V30 47 H 12.6830 8.1290 86.7100 0
M  V30 48 H 6.2460 1.8720 87.7320 0
M  V30 49 C 4.6480 3.8330 90.6610 0
M  V30 50 C 5.5110 2.2180 90.3750 0
M  V30 51 H 6.3330 2.1340 84.2040 0
M  V30 52 N 6.5370 0.6960 85.3880 0
M  V30 53 H 10.3620 9.5260 90.2860 0
M  V30 54 C 9.4930 9.1150 92.0700 0
M  V30 55 C 7.6620 9.0550 91.7840 0
M  V30 56 H 7.2770 9.6560 89.8480 0
M  V30 57 C 13.7750 7.6330 84.6610 0
M  V30 58 H 3.8860 4.2110 90.2860 0
M  V30 59 C 4.6760 3.6640 92.0700 0
M  V30 60 C 5.6430 2.1080 91.7840 0
M  V30 61 H 5.3150 1.4740 89.8480 0
M  V30 62 C 7.0110 -0.1470 84.3020 0
M  V30 63 C 8.4930 8.3350 92.6390 0
M  V30 64 H 10.0390 9.6560 92.5970 0
M  V30 65 H 6.9540 9.5260 92.1590 0
M  V30 66 C 13.9380 6.1450 84.3020 0
M  V30 67 C 14.3050 8.5060 83.5320 0
M  V30 68 H 14.2740 7.8260 85.4820 0
M  V30 69 C 5.8510 3.1880 92.6390 0
M  V30 70 H 3.9340 3.8660 92.5970 0
M  V30 71 H 5.5900 1.2600 92.1590 0
M  V30 72 H 7.0870 0.3840 83.4870 0
M  V30 73 C 6.0230 -1.2870 84.0840 0
M  V30 74 C 8.3810 -0.7500 84.6610 0
M  V30 75 C 8.2830 8.3960 94.1010 0
M  V30 76 H 13.4400 5.9460 83.4870 0
M  V30 77 N 13.4450 5.3130 85.3880 0
M  V30 78 C 15.4190 5.8590 84.0840 0
M  V30 79 C 15.7440 8.2030 83.2460 0
M  V30 80 H 13.7780 8.3530 82.7330 0
M  V30 81 H 14.2140 9.4400 83.7790 0
M  V30 82 C 5.9030 2.9750 94.1010 0
M  V30 83 H 5.1540 -0.9220 83.8520 0
M  V30 84 H 5.9250 -1.7920 84.9100 0
M  V30 85 C 6.5130 -2.2210 82.9540 0
M  V30 86 N 9.3390 0.3420 84.8790 0
M  V30 87 C 8.8720 -1.6450 83.5320 0
M  V30 88 H 8.2990 -1.2790 85.4820 0
M  V30 89 C 6.9560 8.2480 94.6110 0
M  V30 90 C 9.2910 8.5280 95.0210 0
M  V30 91 C 12.5580 4.4870 85.1010 0
M  V30 92 H 15.5380 4.9250 83.8520 0
M  V30 93 H 15.9060 6.0270 84.9100 0
M  V30 94 C 15.9830 6.7510 82.9540 0
M  V30 95 H 16.0340 8.7290 82.4890 0
M  V30 96 H 16.2810 8.4650 84.0100 0
M  V30 97 C 6.6950 1.9000 94.6110 0
M  V30 98 C 5.2850 3.7820 95.0210 0
M  V30 99 H 5.9000 -2.9680 82.8670 0
M  V30 100 H 6.5230 -1.7360 82.1120 0
M  V30 101 C 7.8900 -2.7400 83.2460 0
M  V30 102 C 9.6520 0.5490 86.0700 0
M  V30 103 H 9.0030 -1.1130 82.7330 0
M  V30 104 H 9.7260 -2.0330 83.7790 0
M  V30 105 C 6.7170 8.2150 95.9390 0
M  V30 106 H 6.2440 8.1730 94.0200 0
M  V30 107 H 10.1600 8.6510 94.7130 0
M  V30 108 C 9.0680 8.4860 96.3630 0
M  V30 109 C 11.8830 3.6100 86.0820 0
M  V30 110 H 12.3010 4.4180 84.2040 0
M  V30 111 H 16.9360 6.5940 82.8670 0
M  V30 112 H 15.5580 6.5170 82.1120 0
M  V30 113 C 6.8430 1.7100 95.9390 0
M  V30 114 H 7.1160 1.3210 94.0200 0
M  V30 115 H 4.7440 4.4730 94.7130 0
M  V30 116 C 5.4330 3.6100 96.3630 0
M  V30 117 H 8.2010 -3.2540 82.4890 0
M  V30 118 H 7.8480 -3.3370 84.0100 0
M  V30 119 C 10.4730 1.7100 86.5060 0
M  V30 120 H 9.3570 -0.0520 86.7100 0
M  V30 121 C 5.3010 8.0840 96.3750 0
M  V30 122 C 7.7550 8.3060 96.8390 0
M  V30 123 C 10.1640 8.6320 97.3440 0
M  V30 124 C 12.0310 3.7820 87.4240 0
M  V30 125 C 11.0710 2.5630 85.6060 0
M  V30 126 C 7.6640 0.5490 96.3750 0
M  V30 127 C 6.2450 2.5630 96.8390 0
M  V30 128 C 4.7580 4.4870 97.3440 0
M  V30 129 C 10.6210 1.9000 87.8340 0
M  V30 130 H 4.6330 8.1290 95.7350 0
M  V30 131 N 4.9650 7.9160 97.5660 0
M  V30 132 H 7.5910 8.2480 97.7540 0
M  V30 133 H 9.9770 8.4440 98.2410 0
M  V30 134 N 11.3240 8.9870 97.0570 0
M  V30 135 C 11.4130 2.9750 88.3440 0
M  V30 136 H 12.5720 4.4730 87.7320 0
M  V30 137 H 10.9390 2.4500 84.6910 0
M  V30 138 N 7.9770 0.3420 97.5660 0
M  V30 139 H 7.9590 -0.0520 95.7350 0
M  V30 140 H 6.3770 2.4500 97.7540 0
M  V30 141 H 5.0150 4.4180 98.2410 0
M  V30 142 N 3.8710 5.3130 97.0570 0
M  V30 143 H 10.2000 1.3210 88.4250 0
M  V30 144 C 3.5410 7.6330 97.7840 0
M  V30 145 C 12.2910 8.9980 98.1430 0
M  V30 146 C 11.4650 3.1880 89.8060 0
M  V30 147 C 8.9350 -0.7500 97.7840 0
M  V30 148 C 3.3780 6.1450 98.1430 0
M  V30 149 C 3.0110 8.5060 98.9130 0
M  V30 150 H 3.0420 7.8260 96.9630 0
M  V30 151 H 11.8690 8.6660 98.9580 0
M  V30 152 C 12.7840 10.4240 98.3610 0
M  V30 153 C 13.4980 8.1130 97.7840 0
M  V30 154 C 11.6730 2.1080 90.6610 0
M  V30 155 C 12.6400 3.6640 90.3750 0
M  V30 156 C 10.3050 -0.1470 98.1430 0
M  V30 157 C 8.4440 -1.6450 98.9130 0
M  V30 158 H 9.0170 -1.2790 96.9630 0
M  V30 159 H 3.8760 5.9460 98.9580 0
M  V30 160 C 1.8970 5.8590 98.3610 0
M  V30 161 C 1.5720 8.2030 99.1990 0
M  V30 162 H 3.5380 8.3530 99.7120 0
M  V30 163 H 3.1020 9.4400 98.6660 0
M  V30 164 H 12.0340 10.9940 98.5930 0
M  V30 165 H 13.1720 10.7610 97.5350 0
M  V30 166 C 13.8380 10.4660 99.4910 0
M  V30 167 N 13.0310 6.7380 97.5660 0
M  V30 168 C 14.5190 8.1350 98.9130 0
M  V30 169 H 13.9150 8.4490 96.9630 0
M  V30 170 H 11.7260 1.2600 90.2860 0
M  V30 171 C 11.8050 2.2180 92.0700 0
M  V30 172 C 12.6680 3.8330 91.7840 0
M  V30 173 H 13.3820 3.8660 89.8480 0
M  V30 174 H 10.2290 0.3840 98.9580 0
M  V30 175 N 10.7790 0.6960 97.0570 0
M  V30 176 C 11.2930 -1.2870 98.3610 0
M  V30 177 C 9.4260 -2.7400 99.1990 0
M  V30 178 H 8.3130 -1.1130 99.7120 0
M  V30 179 H 7.5900 -2.0330 98.6660 0
M  V30 180 H 1.7780 4.9250 98.5930 0
M  V30 181 H 1.4100 6.0270 97.5350 0
M  V30 182 C 1.3330 6.7510 99.4910 0
M  V30 183 H 1.2820 8.7290 99.9560 0
M  V30 184 H 1.0350 8.4650 98.4350 0
M  V30 185 H 14.1780 11.3700 99.5780 0
M  V30 186 H 13.4230 10.2150 100.3330 0
M  V30 187 C 14.9760 9.5330 99.1990 0
M  V30 188 C 13.0090 6.3630 96.3750 0
M  V30 189 H 14.1230 7.7560 99.7120 0
M  V30 190 H 15.2820 7.5900 98.6660 0
M  V30 191 C 11.6290 3.4730 92.6390 0
M  V30 192 H 12.0010 1.4740 92.5970 0
M  V30 193 H 13.4300 4.2110 92.1590 0
M  V30 194 C 11.0510 1.8780 97.3440 0
M  V30 195 H 12.1620 -0.9220 98.5930 0
M  V30 196 H 11.3910 -1.7920 97.5350 0
M  V30 197 C 10.8030 -2.2210 99.4910 0
M  V30 198 H 9.1150 -3.2540 99.9560 0
M  V30 199 H 9.4680 -3.3370 98.4350 0
M  V30 200 H 0.3800 6.5940 99.5780 0
M  V30 201 H 1.7580 6.5170 100.3330 0
M  V30 202 H 15.5770 9.5210 99.9560 0
M  V30 203 H 15.4720 9.8670 98.4350 0
M  V30 204 C 12.4140 5.0720 95.9390 0
M  V30 205 H 13.3820 6.9190 95.7350 0
M  V30 206 C 11.7880 3.6250 94.1010 0
M  V30 207 C 11.4740 2.9000 96.3630 0
M  V30 208 H 10.9830 2.1340 98.2410 0
M  V30 209 H 11.4160 -2.9680 99.5780 0
M  V30 210 H 10.7930 -1.7360 100.3330 0
M  V30 211 C 12.3230 4.8480 94.6110 0
M  V30 212 C 11.9740 4.1270 96.8390 0
M  V30 213 C 11.3980 2.6860 95.0210 0
M  V30 214 H 12.6140 5.5020 94.0200 0
M  V30 215 H 12.0050 4.2980 97.7540 0
M  V30 216 H 11.0700 1.8720 94.7130 0
M  V30 END ATOM
M  V30 BEGIN BOND
M  V30 0 1 2 1
M  V30 1 1 3 1
M  V30 2 1 4 1
M  V30 3 1 5 1
M  V30 4 1 6 2
M  V30 5 1 7 2
M  V30 6 1 8 2
M  V30 7 1 9 5
M  V30 8 1 10 5
M  V30 9 1 11 5
M  V30 10 1 12 6
M  V30 11 1 13 11
M  V30 12 1 13 6
M  V30 13 1 14 6
M  V30 14 1 15 11
M  V30 15 1 16 11
M  V30 16 1 17 13
M  V30 17 1 18 13
M  V30 18 1 19 14
M  V30 19 1 20 18
M  V30 20 1 21 19
M  V30 21 1 22 19
M  V30 22 1 23 20
M  V30 23 1 24 20
M  V30 24 1 25 21
M  V30 25 1 26 21
M  V30 26 1 27 24
M  V30 27 1 28 24
M  V30 28 1 29 25
M  V30 29 1 30 25
M  V30 30 1 31 26
M  V30 31 1 32 26
M  V30 32 1 33 27
M  V30 33 1 34 27
M  V30 34 1 35 28
M  V30 35 1 36 28
M  V30 36 1 37 31
M  V30 37 1 37 29
M  V30 38 1 38 29
M  V30 39 1 39 31
M  V30 40 1 40 35
M  V30 41 1 40 34
M  V30 42 1 41 34
M  V30 43 1 42 35
M  V30 44 1 43 37
M  V30 45 1 44 38
M  V30 46 1 45 38
M  V30 47 1 46 39
M  V30 48 1 47 39
M  V30 49 1 48 40
M  V30 50 1 49 41
M  V30 51 1 50 41
M  V30 52 1 51 42
M  V30 53 1 52 42
M  V30 54 1 53 44
M  V30 55 1 54 44
M  V30 56 1 55 45
M  V30 57 1 56 45
M  V30 58 1 57 46
M  V30 59 1 58 49
M  V30 60 1 59 49
M  V30 61 1 60 50
M  V30 62 1 61 50
M  V30 63 1 62 52
M  V30 64 1 63 55
M  V30 65 1 63 54
M  V30 66 1 64 54
M  V30 67 1 65 55
M  V30 68 1 66 57
M  V30 69 1 67 57
M  V30 70 1 68 57
M  V30 71 1 69 59
M  V30 72 1 69 60
M  V30 73 1 70 59
M  V30 74 1 71 60
M  V30 75 1 72 62
M  V30 76 1 73 62
M  V30 77 1 74 62
M  V30 78 1 75 63
M  V30 79 1 76 66
M  V30 80 1 77 66
M  V30 81 1 78 66
M  V30 82 1 79 67
M  V30 83 1 80 67
M  V30 84 1 81 67
M  V30 85 1 82 69
M  V30 86 1 83 73
M  V30 87 1 84 73
M  V30 88 1 85 73
M  V30 89 1 86 74
M  V30 90 1 87 74
M  V30 91 1 88 74
M  V30 92 1 89 75
M  V30 93 1 90 75
M  V30 94 1 91 77
M  V30 95 1 92 78
M  V30 96 1 93 78
M  V30 97 1 94 79
M  V30 98 1 94 78
M  V30 99 1 95 79
M  V30 100 1 96 79
M  V30 101 1 97 82
M  V30 102 1 98 82
M  V30 103 1 99 85
M  V30 104 1 100 85
M  V30 105 1 101 87
M  V30 106 1 101 85
M  V30 107 1 102 86
M  V30 108 1 103 87
M  V30 109 1 104 87
M  V30 110 1 105 89
M  V30 111 1 106 89
M  V30 112 1 107 90
M  V30 113 1 108 90
M  V30 114 1 109 91
M  V30 115 1 110 91
M  V30 116 1 111 94
M  V30 117 1 112 94
M  V30 118 1 113 97
M  V30 119 1 114 97
M  V30 120 1 115 98
M  V30 121 1 116 98
M  V30 122 1 117 101
M  V30 123 1 118 101
M  V30 124 1 119 102
M  V30 125 1 120 102
M  V30 126 1 121 105
M  V30 127 1 122 108
M  V30 128 1 122 105
M  V30 129 1 123 108
M  V30 130 1 124 109
M  V30 131 1 125 119
M  V30 132 1 125 109
M  V30 133 1 126 113
M  V30 134 1 127 116
M  V30 135 1 127 113
M  V30 136 1 128 116
M  V30 137 1 129 119
M  V30 138 1 130 121
M  V30 139 1 131 121
M  V30 140 1 132 122
M  V30 141 1 133 123
M  V30 142 1 134 123
M  V30 143 1 135 129
M  V30 144 1 135 124
M  V30 145 1 136 124
M  V30 146 1 137 125
M  V30 147 1 138 126
M  V30 148 1 139 126
M  V30 149 1 140 127
M  V30 150 1 141 128
M  V30 151 1 142 128
M  V30 152 1 143 129
M  V30 153 1 144 131
M  V30 154 1 145 134
M  V30 155 1 146 135
M  V30 156 1 147 138
M  V30 157 1 148 142
M  V30 158 1 148 144
M  V30 159 1 149 144
M  V30 160 1 150 144
M  V30 161 1 151 145
M  V30 162 1 152 145
M  V30 163 1 153 145
M  V30 164 1 154 146
M  V30 165 1 155 146
M  V30 166 1 156 147
M  V30 167 1 157 147
M  V30 168 1 158 147
M  V30 169 1 159 148
M  V30 170 1 160 148
M  V30 171 1 161 149
M  V30 172 1 162 149
M  V30 173 1 163 149
M  V30 174 1 164 152
M  V30 175 1 165 152
M  V30 176 1 166 152
M  V30 177 1 167 153
M  V30 178 1 168 153
M  V30 179 1 169 153
M  V30 180 1 170 154
M  V30 181 1 171 154
M  V30 182 1 172 155
M  V30 183 1 173 155
M  V30 184 1 174 156
M  V30 185 1 175 156
M  V30 186 1 176 156
M  V30 187 1 177 157
M  V30 188 1 178 157
M  V30 189 1 179 157
M  V30 190 1 180 160
M  V30 191 1 181 160
M  V30 192 1 182 161
M  V30 193 1 182 160
M  V30 194 1 183 161
M  V30 195 1 184 161
M  V30 196 1 185 166
M  V30 197 1 186 166
M  V30 198 1 187 168
M  V30 199 1 187 166
M  V30 200 1 188 167
M  V30 201 1 189 168
M  V30 202 1 190 168
M  V30 203 1 191 172
M  V30 204 1 191 171
M  V30 205 1 192 171
M  V30 206 1 193 172
M  V30 207 1 194 175
M  V30 208 1 195 176
M  V30 209 1 196 176
M  V30 210 1 197 177
M  V30 211 1 197 176
M  V30 212 1 198 177
M  V30 213 1 199 177
M  V30 214 1 200 182
M  V30 215 1 201 182
M  V30 216 1 202 187
M  V30 217 1 203 187
M  V30 218 1 204 188
M  V30 219 1 205 188
M  V30 220 1 206 191
M  V30 221 1 207 194
M  V30 222 1 208 194
M  V30 223 1 209 197
M  V30 224 1 210 197
M  V30 225 1 211 206
M  V30 226 1 211 204
M  V30 227 1 212 207
M  V30 228 1 212 204
M  V30 229 1 213 207
M  V30 230 1 213 206
M  V30 231 1 214 211
M  V30 232 1 215 212
M  V30 233 1 216 213
M  V30 END BOND
M  V30 END CTAB
M  END

$$$$
