
     RDKit          3D

  0  0  0  0  0  0  0  0  0  0999 V3000
M  V30 BEGIN CTAB
M  V30 COUNTS 216 234 0 0 0
M  V30 BEGIN ATOM
M  V30 1 C 3.7490 6.6450 10.6150 0
M  V30 2 C 3.5320 5.2730 10.0680 0
M  V30 3 C 4.6340 7.4650 9.6890 0
M  V30 4 H 2.8950 7.0890 10.7230 0
M  V30 5 H 4.1670 6.5820 11.4900 0
M  V30 6 H 3.0100 4.7550 10.7010 0
M  V30 7 H 3.0280 5.3360 9.2440 0
M  V30 8 C 4.8630 4.5460 9.7940 0
M  V30 9 C 5.9410 6.7690 9.4400 0
M  V30 10 H 4.7990 8.3340 10.0900 0
M  V30 11 H 4.1760 7.6050 8.8460 0
M  V30 12 H 4.6810 3.6840 9.3840 0
M  V30 13 H 5.3240 4.3890 10.6310 0
M  V30 14 C 5.7410 5.3710 8.8750 0
M  V30 15 N 6.7360 7.5030 8.4540 0
M  V30 16 H 6.4440 6.7100 10.2810 0
M  V30 17 N 7.0430 4.7270 8.6600 0
M  V30 18 H 5.2920 5.4520 8.0070 0
M  V30 19 C 7.8320 7.9850 8.7950 0
M  V30 20 C 7.4760 4.7290 7.4750 0
M  V30 21 C 8.7460 8.5800 7.7770 0
M  V30 22 H 8.0820 7.9730 9.6890 0
M  V30 23 C 8.8350 4.2330 7.1300 0
M  V30 24 H 6.9270 5.0500 6.7940 0
M  V30 25 C 9.7940 9.4220 8.1230 0
M  V30 26 C 8.5590 8.1960 6.4520 0
M  V30 27 C 9.6720 3.7710 8.1230 0
M  V30 28 C 9.2700 4.2670 5.8080 0
M  V30 29 H 9.9430 9.6480 9.0120 0
M  V30 30 C 10.6130 9.9160 7.1300 0
M  V30 31 H 7.8670 7.6110 6.2380 0
M  V30 32 C 9.3790 8.6640 5.4520 0
M  V30 33 H 9.4020 3.7870 9.0120 0
M  V30 34 C 10.9260 3.2850 7.7770 0
M  V30 35 C 10.5360 3.7900 5.4520 0
M  V30 36 H 8.7110 4.6130 5.1500 0
M  V30 37 C 10.4250 9.5220 5.8080 0
M  V30 38 C 11.7220 10.8450 7.4750 0
M  V30 39 C 9.1300 8.2800 4.0320 0
M  V30 40 C 11.3520 3.3140 6.4520 0
M  V30 41 C 11.8970 2.7910 8.7950 0
M  V30 42 C 10.9930 3.7670 4.0320 0
M  V30 43 H 11.0040 9.8330 5.1500 0
M  V30 44 N 11.9370 11.2210 8.6600 0
M  V30 45 H 12.2750 11.1600 6.7940 0
M  V30 46 C 7.9180 7.7350 3.6560 0
M  V30 47 C 10.0580 8.4060 3.0430 0
M  V30 48 H 12.2040 3.0070 6.2380 0
M  V30 49 N 12.8630 2.0820 8.4540 0
M  V30 50 H 11.7830 3.0130 9.6890 0
M  V30 51 C 12.0710 2.9890 3.6560 0
M  V30 52 C 10.4200 4.5070 3.0430 0
M  V30 53 C 13.1450 12.0260 8.8750 0
M  V30 54 H 7.2590 7.6130 4.3000 0
M  V30 55 C 7.6590 7.3650 2.3460 0
M  V30 56 C 9.7840 8.0780 1.7230 0
M  V30 57 H 10.9040 8.7230 3.2600 0
M  V30 58 C 13.8970 1.7610 9.4400 0
M  V30 59 H 12.5070 2.4800 4.3000 0
M  V30 60 C 12.5210 2.9500 2.3460 0
M  V30 61 C 10.8420 4.4340 1.7230 0
M  V30 62 H 9.7220 5.0820 3.2600 0
M  V30 63 C 14.2560 11.1540 9.4400 0
M  V30 64 C 12.8700 13.1990 9.7940 0
M  V30 65 H 13.4400 12.3750 8.0070 0
M  V30 66 H 6.8370 6.9770 2.1430 0
M  V30 67 C 8.5590 7.5500 1.3500 0
M  V30 68 H 10.4350 8.2130 1.0740 0
M  V30 69 H 13.6960 2.2260 10.2810 0
M  V30 70 C 13.9470 0.2810 9.6890 0
M  V30 71 C 15.2070 2.2870 8.8750 0
M  V30 72 H 13.2680 2.4320 2.1430 0
M  V30 73 C 11.9110 3.6370 1.3500 0
M  V30 74 H 10.3990 4.9300 1.0740 0
M  V30 75 N 14.4940 10.0990 8.4540 0
M  V30 76 H 13.9530 10.7490 10.2810 0
M  V30 77 C 15.5130 11.9380 9.6890 0
M  V30 78 C 14.1650 13.9890 10.0680 0
M  V30 79 H 12.2150 13.7880 9.3840 0
M  V30 80 H 12.5030 12.8790 10.6310 0
M  V30 81 C 8.2870 7.2370 -0.0810 0
M  V30 82 H 13.1130 -0.0110 10.0900 0
M  V30 83 H 14.0550 -0.1860 8.8460 0
M  V30 84 C 15.1010 -0.0760 10.6150 0
M  V30 85 N 15.1140 3.7350 8.6600 0
M  V30 86 C 16.3600 1.9380 9.7940 0
M  V30 87 H 15.3610 1.8580 8.0070 0
M  V30 88 C 12.3180 3.5580 -0.0810 0
M  V30 89 C 14.3640 8.9080 8.7950 0
M  V30 90 H 16.1820 11.3610 10.0900 0
M  V30 91 H 15.8630 12.2640 8.8460 0
M  V30 92 C 15.2440 13.1150 10.6150 0
M  V30 93 H 13.9770 14.6990 10.7010 0
M  V30 94 H 14.4720 14.3940 9.2440 0
M  V30 95 C 7.9460 5.9500 -0.4870 0
M  V30 96 C 8.4360 8.2110 -1.0360 0
M  V30 97 H 14.9450 0.3180 11.4900 0
M  V30 98 C 16.3970 0.4230 10.0680 0
M  V30 99 H 15.1430 -1.0380 10.7230 0
M  V30 100 C 14.8950 4.1090 7.4750 0
M  V30 101 H 17.1980 2.2120 9.3840 0
M  V30 102 H 16.2660 2.4170 10.6310 0
M  V30 103 C 13.6030 3.9070 -0.4870 0
M  V30 104 C 11.4000 3.2000 -1.0360 0
M  V30 105 C 14.4220 7.8200 7.7770 0
M  V30 106 H 14.2280 8.6980 9.6890 0
M  V30 107 H 14.9810 12.7840 11.4900 0
M  V30 108 H 16.0570 13.6320 10.7230 0
M  V30 109 H 7.8360 5.2790 0.1450 0
M  V30 110 C 7.7680 5.6640 -1.8380 0
M  V30 111 C 8.2440 7.9540 -2.3850 0
M  V30 112 H 8.6730 9.0720 -0.7710 0
M  V30 113 H 17.1060 0.2300 10.7010 0
M  V30 114 H 16.5950 -0.0460 9.2440 0
M  V30 115 C 14.6450 5.5340 7.1300 0
M  V30 116 H 14.8920 3.4740 6.7940 0
M  V30 117 H 14.2400 4.1470 0.1450 0
M  V30 118 C 13.9400 3.8950 -1.8380 0
M  V30 119 C 11.7190 3.1630 -2.3850 0
M  V30 120 H 10.5360 2.9760 -0.7710 0
M  V30 121 C 14.6270 6.4910 8.1230 0
M  V30 122 C 14.1830 8.1740 6.4520 0
M  V30 123 C 7.9670 6.6470 -2.7760 0
M  V30 124 C 7.5190 4.2610 -2.2670 0
M  V30 125 C 8.4120 9.0090 -3.3710 0
M  V30 126 C 14.3990 5.8950 5.8080 0
M  V30 127 C 12.9900 3.5760 -2.7760 0
M  V30 128 C 15.2800 4.3810 -2.2670 0
M  V30 129 C 10.7210 2.7810 -3.3710 0
M  V30 130 H 14.7490 6.2490 9.0120 0
M  V30 131 C 14.1780 7.2290 5.4520 0
M  V30 132 H 14.0230 9.0660 6.2380 0
M  V30 133 H 7.9150 6.4360 -3.6790 0
M  V30 134 N 7.4760 3.9340 -3.4720 0
M  V30 135 H 7.3910 3.6070 -1.6170 0
M  V30 136 N 8.4460 10.2290 -3.0680 0
M  V30 137 H 8.5000 8.7700 -4.2670 0
M  V30 138 H 14.3780 5.2370 5.1500 0
M  V30 139 H 13.1980 3.6370 -3.6790 0
M  V30 140 N 15.5840 4.5070 -3.4720 0
M  V30 141 H 15.9090 4.5980 -1.6170 0
M  V30 142 N 9.6470 2.2000 -3.0680 0
M  V30 143 H 10.8840 2.9760 -4.2670 0
M  V30 144 C 13.9700 7.6370 4.0320 0
M  V30 145 C 7.3430 2.4910 -3.7520 0
M  V30 146 C 8.6780 11.1900 -4.1350 0
M  V30 147 C 16.9000 5.1130 -3.7520 0
M  V30 148 C 8.7000 1.9200 -4.1350 0
M  V30 149 C 14.1040 8.9590 3.6560 0
M  V30 150 C 13.6160 6.7710 3.0430 0
M  V30 151 H 7.0240 2.0390 -2.9440 0
M  V30 152 C 6.3500 2.2370 -4.8850 0
M  V30 153 C 9.8510 12.0790 -3.7520 0
M  V30 154 C 7.4390 12.0010 -4.4010 0
M  V30 155 H 8.9110 10.7000 -4.9510 0
M  V30 156 H 17.4510 5.0640 -2.9440 0
M  V30 157 C 17.6160 4.3810 -4.8850 0
M  V30 158 C 16.7160 6.5740 -4.1350 0
M  V30 159 C 8.6170 0.4420 -4.4010 0
M  V30 160 H 9.0080 2.3670 -4.9510 0
M  V30 161 H 14.3280 9.5910 4.3000 0
M  V30 162 C 13.9140 9.3690 2.3460 0
M  V30 163 C 13.4680 7.1720 1.7230 0
M  V30 164 H 13.4670 5.8790 3.2600 0
M  V30 165 H 5.4730 2.5600 -4.6270 0
M  V30 166 H 6.6310 2.7200 -5.6770 0
M  V30 167 C 6.2770 0.7390 -5.1930 0
M  V30 168 N 11.0340 11.2430 -3.4720 0
M  V30 169 H 9.6180 12.5810 -2.9440 0
M  V30 170 C 10.1270 13.0660 -4.8850 0
M  V30 171 C 7.6980 13.0040 -5.5110 0
M  V30 172 H 6.7130 11.4080 -4.6590 0
M  V30 173 H 7.1760 12.4650 -3.5930 0
M  V30 174 H 17.7750 3.4600 -4.6270 0
M  V30 175 H 17.0580 4.3830 -5.6770 0
M  V30 176 C 18.9500 5.0660 -5.1930 0
M  V30 177 N 16.0000 7.2550 -3.0680 0
M  V30 178 C 18.0380 7.2410 -4.4010 0
M  V30 179 H 16.1750 6.6170 -4.9510 0
M  V30 180 H 8.3470 -0.0180 -3.5930 0
M  V30 181 C 7.6180 0.1650 -5.5110 0
M  V30 182 H 9.4930 0.1100 -4.6590 0
M  V30 183 H 13.9890 10.2740 2.1430 0
M  V30 184 C 13.6240 8.4970 1.3500 0
M  V30 185 H 13.2600 6.5400 1.0740 0
M  V30 186 H 5.6820 0.6000 -5.9500 0
M  V30 187 H 5.9020 0.2750 -4.4300 0
M  V30 188 C 11.2950 11.0420 -2.2670 0
M  V30 189 H 10.8450 13.6640 -4.6270 0
M  V30 190 H 10.4040 12.5810 -5.6770 0
M  V30 191 C 8.8670 13.8780 -5.1930 0
M  V30 192 H 6.9100 13.5560 -5.6350 0
M  V30 193 H 7.8670 12.5320 -6.3380 0
M  V30 194 H 19.3690 4.6210 -5.9500 0
M  V30 195 H 19.5400 4.9730 -4.4300 0
M  V30 196 C 18.7780 6.5150 -5.5110 0
M  V30 197 C 14.9600 7.8950 -3.3710 0
M  V30 198 H 17.8880 8.1660 -4.6590 0
M  V30 199 H 18.5720 7.2370 -3.5930 0
M  V30 200 H 7.5350 -0.7940 -5.6350 0
M  V30 201 H 7.9430 0.5470 -6.3380 0
M  V30 202 C 13.4890 8.8890 -0.0810 0
M  V30 203 C 12.3860 10.1250 -1.8380 0
M  V30 204 H 10.7930 11.4790 -1.6170 0
M  V30 205 H 9.0430 14.4630 -5.9500 0
M  V30 206 H 8.6520 14.4360 -4.4300 0
M  V30 207 H 18.2840 6.6050 -6.3380 0
M  V30 208 H 19.6490 6.9220 -5.6350 0
M  V30 209 C 14.1310 8.5680 -2.3850 0
M  V30 210 H 14.7100 7.9380 -4.2670 0
M  V30 211 C 12.5440 9.8280 -0.4870 0
M  V30 212 C 14.2580 8.2720 -1.0360 0
M  V30 213 C 13.1370 9.4610 -2.7760 0
M  V30 214 H 12.0180 10.2590 0.1450 0
M  V30 215 H 14.8840 7.6370 -0.7710 0
M  V30 216 H 12.9810 9.6110 -3.6790 0
M  V30 END ATOM
M  V30 BEGIN BOND
M  V30 0 1 2 1
M  V30 1 1 3 1
M  V30 2 1 4 1
M  V30 3 1 5 1
M  V30 4 1 6 2
M  V30 5 1 7 2
M  V30 6 1 8 2
M  V30 7 1 9 3
M  V30 8 1 10 3
M  V30 9 1 11 3
M  V30 10 1 12 8
M  V30 11 1 13 8
M  V30 12 1 14 8
M  V30 13 1 14 9
M  V30 14 1 15 9
M  V30 15 1 16 9
M  V30 16 1 17 14
M  V30 17 1 18 14
M  V30 18 1 19 15
M  V30 19 1 20 17
M  V30 20 1 21 19
M  V30 21 1 22 19
M  V30 22 1 23 20
M  V30 23 1 24 20
M  V30 24 1 25 21
M  V30 25 1 26 21
M  V30 26 1 27 23
M  V30 27 1 28 23
M  V30 28 1 29 25
M  V30 29 1 30 25
M  V30 30 1 31 26
M  V30 31 1 32 26
M  V30 32 1 33 27
M  V30 33 1 34 27
M  V30 34 1 35 28
M  V30 35 1 36 28
M  V30 36 1 37 32
M  V30 37 1 37 30
M  V30 38 1 38 30
M  V30 39 1 39 32
M  V30 40 1 40 35
M  V30 41 1 40 34
M  V30 42 1 41 34
M  V30 43 1 42 35
M  V30 44 1 43 37
M  V30 45 1 44 38
M  V30 46 1 45 38
M  V30 47 1 46 39
M  V30 48 1 47 39
M  V30 49 1 48 40
M  V30 50 1 49 41
M  V30 51 1 50 41
M  V30 52 1 51 42
M  V30 53 1 52 42
M  V30 54 1 53 44
M  V30 55 1 54 46
M  V30 56 1 55 46
M  V30 57 1 56 47
M  V30 58 1 57 47
M  V30 59 1 58 49
M  V30 60 1 59 51
M  V30 61 1 60 51
M  V30 62 1 61 52
M  V30 63 1 62 52
M  V30 64 1 63 53
M  V30 65 1 64 53
M  V30 66 1 65 53
M  V30 67 1 66 55
M  V30 68 1 67 56
M  V30 69 1 67 55
M  V30 70 1 68 56
M  V30 71 1 69 58
M  V30 72 1 70 58
M  V30 73 1 71 58
M  V30 74 1 72 60
M  V30 75 1 73 61
M  V30 76 1 73 60
M  V30 77 1 74 61
M  V30 78 1 75 63
M  V30 79 1 76 63
M  V30 80 1 77 63
M  V30 81 1 78 64
M  V30 82 1 79 64
M  V30 83 1 80 64
M  V30 84 1 81 67
M  V30 85 1 82 70
M  V30 86 1 83 70
M  V30 87 1 84 70
M  V30 88 1 85 71
M  V30 89 1 86 71
M  V30 90 1 87 71
M  V30 91 1 88 73
M  V30 92 1 89 75
M  V30 93 1 90 77
M  V30 94 1 91 77
M  V30 95 1 92 78
M  V30 96 1 92 77
M  V30 97 1 93 78
M  V30 98 1 94 78
M  V30 99 1 95 81
M  V30 100 1 96 81
M  V30 101 1 97 84
M  V30 102 1 98 84
M  V30 103 1 98 86
M  V30 104 1 99 84
M  V30 105 1 100 85
M  V30 106 1 101 86
M  V30 107 1 102 86
M  V30 108 1 103 88
M  V30 109 1 104 88
M  V30 110 1 105 89
M  V30 111 1 106 89
M  V30 112 1 107 92
M  V30 113 1 108 92
M  V30 114 1 109 95
M  V30 115 1 110 95
M  V30 116 1 111 96
M  V30 117 1 112 96
M  V30 118 1 113 98
M  V30 119 1 114 98
M  V30 120 1 115 100
M  V30 121 1 116 100
M  V30 122 1 117 103
M  V30 123 1 118 103
M  V30 124 1 119 104
M  V30 125 1 120 104
M  V30 126 1 121 115
M  V30 127 1 121 105
M  V30 128 1 122 105
M  V30 129 1 123 111
M  V30 130 1 123 110
M  V30 131 1 124 110
M  V30 132 1 125 111
M  V30 133 1 126 115
M  V30 134 1 127 119
M  V30 135 1 127 118
M  V30 136 1 128 118
M  V30 137 1 129 119
M  V30 138 1 130 121
M  V30 139 1 131 126
M  V30 140 1 131 122
M  V30 141 1 132 122
M  V30 142 1 133 123
M  V30 143 1 134 124
M  V30 144 1 135 124
M  V30 145 1 136 125
M  V30 146 1 137 125
M  V30 147 1 138 126
M  V30 148 1 139 127
M  V30 149 1 140 128
M  V30 150 1 141 128
M  V30 151 1 142 129
M  V30 152 1 143 129
M  V30 153 1 144 131
M  V30 154 1 145 134
M  V30 155 1 146 136
M  V30 156 1 147 140
M  V30 157 1 148 145
M  V30 158 1 148 142
M  V30 159 1 149 144
M  V30 160 1 150 144
M  V30 161 1 151 145
M  V30 162 1 152 145
M  V30 163 1 153 146
M  V30 164 1 154 146
M  V30 165 1 155 146
M  V30 166 1 156 147
M  V30 167 1 157 147
M  V30 168 1 158 147
M  V30 169 1 159 148
M  V30 170 1 160 148
M  V30 171 1 161 149
M  V30 172 1 162 149
M  V30 173 1 163 150
M  V30 174 1 164 150
M  V30 175 1 165 152
M  V30 176 1 166 152
M  V30 177 1 167 152
M  V30 178 1 168 153
M  V30 179 1 169 153
M  V30 180 1 170 153
M  V30 181 1 171 154
M  V30 182 1 172 154
M  V30 183 1 173 154
M  V30 184 1 174 157
M  V30 185 1 175 157
M  V30 186 1 176 157
M  V30 187 1 177 158
M  V30 188 1 178 158
M  V30 189 1 179 158
M  V30 190 1 180 159
M  V30 191 1 181 167
M  V30 192 1 181 159
M  V30 193 1 182 159
M  V30 194 1 183 162
M  V30 195 1 184 163
M  V30 196 1 184 162
M  V30 197 1 185 163
M  V30 198 1 186 167
M  V30 199 1 187 167
M  V30 200 1 188 168
M  V30 201 1 189 170
M  V30 202 1 190 170
M  V30 203 1 191 171
M  V30 204 1 191 170
M  V30 205 1 192 171
M  V30 206 1 193 171
M  V30 207 1 194 176
M  V30 208 1 195 176
M  V30 209 1 196 176
M  V30 210 1 196 178
M  V30 211 1 197 177
M  V30 212 1 198 178
M  V30 213 1 199 178
M  V30 214 1 200 181
M  V30 215 1 201 181
M  V30 216 1 202 184
M  V30 217 1 203 188
M  V30 218 1 204 188
M  V30 219 1 205 191
M  V30 220 1 206 191
M  V30 221 1 207 196
M  V30 222 1 208 196
M  V30 223 1 209 197
M  V30 224 1 210 197
M  V30 225 1 211 203
M  V30 226 1 211 202
M  V30 227 1 212 209
M  V30 228 1 212 202
M  V30 229 1 213 209
M  V30 230 1 213 203
M  V30 231 1 214 211
M  V30 232 1 215 212
M  V30 233 1 216 213
M  V30 END BOND
M  V30 END CTAB
M  END

$$$$
