
     RDKit          3D

  0  0  0  0  0  0  0  0  0  0999 V3000
M  V30 BEGIN CTAB
M  V30 COUNTS 168 180 0 0 0
M  V30 BEGIN ATOM
M  V30 1 C 7.1821 12.5983 22.4227 0
M  V30 2 C 6.7200 11.4878 21.4584 0
M  V30 3 C 7.1376 13.9857 21.7563 0
M  V30 4 H 6.5486 12.5989 23.3113 0
M  V30 5 H 8.1940 12.3879 22.7727 0
M  V30 6 C 5.3132 11.7632 20.8749 0
M  V30 7 H 7.4440 11.3989 20.6457 0
M  V30 8 H 6.7292 10.5266 21.9744 0
M  V30 9 C 5.7514 14.2959 21.1563 0
M  V30 10 H 7.8906 14.0328 20.9673 0
M  V30 11 H 7.4105 14.7560 22.4791 0
M  V30 12 N 5.0239 10.7247 19.8906 0
M  V30 13 C 5.2590 13.1874 20.1941 0
M  V30 14 H 4.6267 11.7587 21.7273 0
M  V30 15 H 5.7918 15.2518 20.6310 0
M  V30 16 H 5.0297 14.4264 21.9640 0
M  V30 17 C 4.1269 9.8566 20.1526 0
M  V30 18 H 5.9759 13.1410 19.3708 0
M  V30 19 N 3.9885 13.6221 19.5960 0
M  V30 20 C 3.7302 8.7993 19.2116 0
M  V30 21 H 3.5960 9.8465 21.1017 0
M  V30 22 C 2.8624 13.2006 20.0218 0
M  V30 23 C 2.8659 7.7811 19.6291 0
M  V30 24 C 4.1910 8.7763 17.8879 0
M  V30 25 C 1.5727 13.5632 19.4197 0
M  V30 26 H 2.7789 12.5464 20.8839 0
M  V30 27 C 2.4673 6.7505 18.7641 0
M  V30 28 H 2.4984 7.7775 20.6472 0
M  V30 29 C 3.8198 7.7661 16.9940 0
M  V30 30 H 4.8576 9.5628 17.5557 0
M  V30 31 C 0.3931 13.3827 20.1503 0
M  V30 32 C 1.4767 14.0799 18.1211 0
M  V30 33 C 1.5749 5.6668 19.2039 0
M  V30 34 C 2.9546 6.7607 17.4501 0
M  V30 35 C 4.3573 7.7906 15.6259 0
M  V30 36 C -0.8585 13.7244 19.6234 0
M  V30 37 H 0.4539 12.9875 21.1559 0
M  V30 38 C 0.2404 14.4089 17.5453 0
M  V30 39 H 2.3830 14.2141 17.5425 0
M  V30 40 N 1.1623 5.5346 20.4054 0
M  V30 41 H 1.2895 4.9703 18.4184 0
M  V30 42 H 2.6669 5.9744 16.7639 0
M  V30 43 H 4.8950 8.7033 15.3769 0
M  V30 44 N 4.2258 6.8398 14.7838 0
M  V30 45 C -2.0567 13.5510 20.4571 0
M  V30 46 C -0.9159 14.2321 18.3166 0
M  V30 47 C 0.1356 14.9192 16.1688 0
M  V30 48 C 0.2955 4.3968 20.7093 0
M  V30 49 C 4.8431 7.0250 13.4683 0
M  V30 50 N -3.2263 13.9410 20.1280 0
M  V30 51 H -1.8690 13.0531 21.4061 0
M  V30 52 H -1.8816 14.4908 17.9015 0
M  V30 53 H -0.8791 15.1151 15.8301 0
M  V30 54 N 1.1461 15.1221 15.4173 0
M  V30 55 C 1.0301 3.5201 21.7534 0
M  V30 56 C -1.0913 4.8822 21.2456 0
M  V30 57 H 0.0968 3.7564 19.8418 0
M  V30 58 C 3.7658 7.0344 12.3361 0
M  V30 59 C 5.8651 5.8814 13.2596 0
M  V30 60 H 5.4028 7.9638 13.3767 0
M  V30 61 C -4.3040 13.7051 21.0906 0
M  V30 62 C 0.9371 15.6118 14.0582 0
M  V30 63 C 0.1652 2.3501 22.2611 0
M  V30 64 H 1.9562 3.1318 21.3268 0
M  V30 65 H 1.3271 4.1349 22.6054 0
M  V30 66 C -1.9396 3.6976 21.7707 0
M  V30 67 H -0.8917 5.5349 22.1036 0
M  V30 68 N -1.8581 5.5346 20.1852 0
M  V30 69 H 3.2237 6.0842 12.4099 0
M  V30 70 C 4.4252 7.0630 10.9360 0
M  V30 71 N 2.9017 8.2097 12.4507 0
M  V30 72 C 6.5079 5.9151 11.8585 0
M  V30 73 H 5.3720 4.9180 13.4025 0
M  V30 74 H 6.6444 5.9364 14.0211 0
M  V30 75 C -5.3589 12.7037 20.5203 0
M  V30 76 H -3.9551 13.2876 22.0428 0
M  V30 77 C -4.9504 15.0714 21.4229 0
M  V30 78 C 1.7858 14.7603 13.0306 0
M  V30 79 C 1.3670 17.1000 14.0315 0
M  V30 80 H -0.1112 15.5918 13.7443 0
M  V30 81 C -1.1870 2.8412 22.8074 0
M  V30 82 H -0.0049 1.6421 21.4480 0
M  V30 83 H 0.7016 1.7989 23.0351 0
M  V30 84 H -2.2365 3.0601 20.9355 0
M  V30 85 H -2.8674 4.0694 22.2080 0
M  V30 86 C -2.2215 6.7449 20.3669 0
M  V30 87 H 3.6582 7.0032 10.1624 0
M  V30 88 H 4.9276 8.0209 10.7871 0
M  V30 89 C 5.4463 5.9239 10.7431 0
M  V30 90 C 1.6530 8.0045 12.6113 0
M  V30 91 H 7.1368 6.8028 11.7688 0
M  V30 92 H 7.1730 5.0593 11.7335 0
M  V30 93 N -4.7751 11.3713 20.3542 0
M  V30 94 H -5.7297 13.1384 19.5844 0
M  V30 95 C -6.5775 12.5771 21.4667 0
M  V30 96 C -6.1694 14.9334 22.3573 0
M  V30 97 H -5.2633 15.5639 20.5001 0
M  V30 98 H -4.2117 15.7315 21.8801 0
M  V30 99 N 1.4739 13.3316 12.8681 0
M  V30 100 H 2.8155 14.8071 13.3929 0
M  V30 101 C 1.7754 15.3997 11.6195 0
M  V30 102 C 1.3253 17.7042 12.6152 0
M  V30 103 H 2.3808 17.1961 14.4261 0
M  V30 104 H 0.7308 17.6852 14.6971 0
M  V30 105 H -1.0242 3.4255 23.7149 0
M  V30 106 H -1.8011 1.9889 23.1023 0
M  V30 107 C -3.0125 7.5121 19.3921 0
M  V30 108 H -1.9690 7.2906 21.2734 0
M  V30 109 H 4.9241 4.9656 10.7298 0
M  V30 110 H 5.9297 6.0189 9.7696 0
M  V30 111 C 0.6464 9.0657 12.7542 0
M  V30 112 H 1.2432 6.9976 12.6526 0
M  V30 113 C -4.8133 10.8598 19.1856 0
M  V30 114 H -7.3301 11.9256 21.0201 0
M  V30 115 H -6.2727 12.0912 22.3956 0
M  V30 116 C -7.2089 13.9443 21.7981 0
M  V30 117 H -5.8380 14.5953 23.3407 0
M  V30 118 H -6.6310 15.9097 22.5138 0
M  V30 119 C 0.3423 12.8360 13.1857 0
M  V30 120 H 2.4492 14.8508 10.9590 0
M  V30 121 H 0.7807 15.3012 11.1819 0
M  V30 122 C 2.1782 16.8870 11.6300 0
M  V30 123 H 0.2933 17.7438 12.2624 0
M  V30 124 H 1.6767 18.7368 12.6417 0
M  V30 125 C -3.5005 8.7801 19.7351 0
M  V30 126 C -3.3156 7.0055 18.1193 0
M  V30 127 C -0.7089 8.7180 12.7626 0
M  V30 128 C 0.9848 10.4206 12.8840 0
M  V30 129 C -4.2775 9.5349 18.8441 0
M  V30 130 H -5.2637 11.3861 18.3466 0
M  V30 131 H -7.6629 14.3634 20.8983 0
M  V30 132 H -8.0222 13.8148 22.5140 0
M  V30 133 C 0.0043 11.4115 13.0449 0
M  V30 134 H -0.4690 13.4454 13.5707 0
M  V30 135 H 3.2319 16.9743 11.9019 0
M  V30 136 H 2.0903 17.3033 10.6254 0
M  V30 137 H -3.2855 9.1912 20.7132 0
M  V30 138 C -4.0916 7.7270 17.2053 0
M  V30 139 H -2.9465 6.0245 17.8475 0
M  V30 140 C -1.7185 9.6796 12.9040 0
M  V30 141 H -0.9931 7.6794 12.6489 0
M  V30 142 H 2.0292 10.7076 12.8703 0
M  V30 143 C -4.5587 8.9924 17.5856 0
M  V30 144 C -1.3407 11.0188 13.0621 0
M  V30 145 C -4.4012 7.1468 15.8911 0
M  V30 146 C -3.1440 9.3185 12.8756 0
M  V30 147 H -5.1621 9.5548 16.8843 0
M  V30 148 H -2.1086 11.7728 13.1756 0
M  V30 149 H -3.8651 6.2278 15.6637 0
M  V30 150 N -5.2311 7.6661 15.0718 0
M  V30 151 N -3.5710 8.1446 12.6118 0
M  V30 152 H -3.8227 10.1386 13.0991 0
M  V30 153 C -5.4372 6.9931 13.7907 0
M  V30 154 C -5.0170 7.9285 12.6106 0
M  V30 155 C -6.9318 6.6026 13.6954 0
M  V30 156 H -4.8603 6.0664 13.6870 0
M  V30 157 H -5.5941 8.8552 12.7122 0
M  V30 158 C -5.4008 7.3168 11.2420 0
M  V30 159 C -7.2970 5.9990 12.3247 0
M  V30 160 H -7.5536 7.4824 13.8722 0
M  V30 161 H -7.1820 5.8941 14.4865 0
M  V30 162 H -5.1632 8.0185 10.4411 0
M  V30 163 H -4.7938 6.4291 11.0534 0
M  V30 164 C -6.8910 6.9288 11.1664 0
M  V30 165 H -6.8011 5.0336 12.2080 0
M  V30 166 H -8.3682 5.7956 12.2811 0
M  V30 167 H -7.5043 7.8313 11.1916 0
M  V30 168 H -7.1018 6.4466 10.2106 0
M  V30 END ATOM
M  V30 BEGIN BOND
M  V30 0 1 2 1
M  V30 1 1 3 1
M  V30 2 1 4 1
M  V30 3 1 5 1
M  V30 4 1 6 2
M  V30 5 1 7 2
M  V30 6 1 8 2
M  V30 7 1 9 3
M  V30 8 1 10 3
M  V30 9 1 11 3
M  V30 10 1 12 6
M  V30 11 1 13 6
M  V30 12 1 13 9
M  V30 13 1 14 6
M  V30 14 1 15 9
M  V30 15 1 16 9
M  V30 16 1 17 12
M  V30 17 1 18 13
M  V30 18 1 19 13
M  V30 19 1 20 17
M  V30 20 1 21 17
M  V30 21 1 22 19
M  V30 22 1 23 20
M  V30 23 1 24 20
M  V30 24 1 25 22
M  V30 25 1 26 22
M  V30 26 1 27 23
M  V30 27 1 28 23
M  V30 28 1 29 24
M  V30 29 1 30 24
M  V30 30 1 31 25
M  V30 31 1 32 25
M  V30 32 1 33 27
M  V30 33 1 34 29
M  V30 34 1 34 27
M  V30 35 1 35 29
M  V30 36 1 36 31
M  V30 37 1 37 31
M  V30 38 1 38 32
M  V30 39 1 39 32
M  V30 40 1 40 33
M  V30 41 1 41 33
M  V30 42 1 42 34
M  V30 43 1 43 35
M  V30 44 1 44 35
M  V30 45 1 45 36
M  V30 46 1 46 38
M  V30 47 1 46 36
M  V30 48 1 47 38
M  V30 49 1 48 40
M  V30 50 1 49 44
M  V30 51 1 50 45
M  V30 52 1 51 45
M  V30 53 1 52 46
M  V30 54 1 53 47
M  V30 55 1 54 47
M  V30 56 1 55 48
M  V30 57 1 56 48
M  V30 58 1 57 48
M  V30 59 1 58 49
M  V30 60 1 59 49
M  V30 61 1 60 49
M  V30 62 1 61 50
M  V30 63 1 62 54
M  V30 64 1 63 55
M  V30 65 1 64 55
M  V30 66 1 65 55
M  V30 67 1 66 56
M  V30 68 1 67 56
M  V30 69 1 68 56
M  V30 70 1 69 58
M  V30 71 1 70 58
M  V30 72 1 71 58
M  V30 73 1 72 59
M  V30 74 1 73 59
M  V30 75 1 74 59
M  V30 76 1 75 61
M  V30 77 1 76 61
M  V30 78 1 77 61
M  V30 79 1 78 62
M  V30 80 1 79 62
M  V30 81 1 80 62
M  V30 82 1 81 66
M  V30 83 1 81 63
M  V30 84 1 82 63
M  V30 85 1 83 63
M  V30 86 1 84 66
M  V30 87 1 85 66
M  V30 88 1 86 68
M  V30 89 1 87 70
M  V30 90 1 88 70
M  V30 91 1 89 70
M  V30 92 1 89 72
M  V30 93 1 90 71
M  V30 94 1 91 72
M  V30 95 1 92 72
M  V30 96 1 93 75
M  V30 97 1 94 75
M  V30 98 1 95 75
M  V30 99 1 96 77
M  V30 100 1 97 77
M  V30 101 1 98 77
M  V30 102 1 99 78
M  V30 103 1 100 78
M  V30 104 1 101 78
M  V30 105 1 102 79
M  V30 106 1 103 79
M  V30 107 1 104 79
M  V30 108 1 105 81
M  V30 109 1 106 81
M  V30 110 1 107 86
M  V30 111 1 108 86
M  V30 112 1 109 89
M  V30 113 1 110 89
M  V30 114 1 111 90
M  V30 115 1 112 90
M  V30 116 1 113 93
M  V30 117 1 114 95
M  V30 118 1 115 95
M  V30 119 1 116 95
M  V30 120 1 116 96
M  V30 121 1 117 96
M  V30 122 1 118 96
M  V30 123 1 119 99
M  V30 124 1 120 101
M  V30 125 1 121 101
M  V30 126 1 122 101
M  V30 127 1 122 102
M  V30 128 1 123 102
M  V30 129 1 124 102
M  V30 130 1 125 107
M  V30 131 1 126 107
M  V30 132 1 127 111
M  V30 133 1 128 111
M  V30 134 1 129 125
M  V30 135 1 129 113
M  V30 136 1 130 113
M  V30 137 1 131 116
M  V30 138 1 132 116
M  V30 139 1 133 128
M  V30 140 1 133 119
M  V30 141 1 134 119
M  V30 142 1 135 122
M  V30 143 1 136 122
M  V30 144 1 137 125
M  V30 145 1 138 126
M  V30 146 1 139 126
M  V30 147 1 140 127
M  V30 148 1 141 127
M  V30 149 1 142 128
M  V30 150 1 143 138
M  V30 151 1 143 129
M  V30 152 1 144 140
M  V30 153 1 144 133
M  V30 154 1 145 138
M  V30 155 1 146 140
M  V30 156 1 147 143
M  V30 157 1 148 144
M  V30 158 1 149 145
M  V30 159 1 150 145
M  V30 160 1 151 146
M  V30 161 1 152 146
M  V30 162 1 153 150
M  V30 163 1 154 153
M  V30 164 1 154 151
M  V30 165 1 155 153
M  V30 166 1 156 153
M  V30 167 1 157 154
M  V30 168 1 158 154
M  V30 169 1 159 155
M  V30 170 1 160 155
M  V30 171 1 161 155
M  V30 172 1 162 158
M  V30 173 1 163 158
M  V30 174 1 164 159
M  V30 175 1 164 158
M  V30 176 1 165 159
M  V30 177 1 166 159
M  V30 178 1 167 164
M  V30 179 1 168 164
M  V30 END BOND
M  V30 END CTAB
M  END

$$$$
