
     RDKit          3D

  0  0  0  0  0  0  0  0  0  0999 V3000
M  V30 BEGIN CTAB
M  V30 COUNTS 228 246 0 0 0
M  V30 BEGIN ATOM
M  V30 1 C 7.1321 2.6622 21.3564 0
M  V30 2 C 6.6815 1.6215 20.3094 0
M  V30 3 H 6.6683 2.4332 22.3176 0
M  V30 4 H 8.2088 2.5864 21.5159 0
M  V30 5 C 6.7626 4.1006 20.9405 0
M  V30 6 C 5.1765 1.7487 19.9804 0
M  V30 7 H 7.2697 1.7493 19.3987 0
M  V30 8 H 6.9005 0.6160 20.6715 0
M  V30 9 C 5.2654 4.2385 20.5908 0
M  V30 10 H 7.0230 4.7972 21.7388 0
M  V30 11 H 7.3640 4.3932 20.0779 0
M  V30 12 N 4.8393 0.8034 18.9164 0
M  V30 13 H 4.6289 1.5649 20.9125 0
M  V30 14 C 4.8228 3.2064 19.5295 0
M  V30 15 H 5.0623 5.2497 20.2351 0
M  V30 16 H 4.6708 4.1119 21.4974 0
M  V30 17 C 4.0004 -0.1189 19.1896 0
M  V30 18 N 3.3823 3.3538 19.3049 0
M  V30 19 H 5.4173 3.4186 18.6326 0
M  V30 20 C 3.4518 -1.0384 18.1853 0
M  V30 21 H 3.6216 -0.2746 20.1975 0
M  V30 22 C 2.9863 3.3396 18.0899 0
M  V30 23 C 3.5253 -0.7552 16.8136 0
M  V30 24 C 2.7692 -2.1933 18.5914 0
M  V30 25 H 3.6895 3.2538 17.2638 0
M  V30 26 C 1.5791 3.4042 17.6742 0
M  V30 27 C 2.9108 -1.5846 15.8771 0
M  V30 28 H 4.0319 0.1394 16.4762 0
M  V30 29 C 2.1580 -3.0526 17.6641 0
M  V30 30 H 2.6893 -2.4238 19.6464 0
M  V30 31 C 1.2626 3.3139 16.3121 0
M  V30 32 C 0.5272 3.5032 18.5992 0
M  V30 33 C 2.9318 -1.2293 14.4660 0
M  V30 34 C 2.2397 -2.7307 16.3028 0
M  V30 35 C 1.3981 -4.2399 18.0764 0
M  V30 36 H 2.0482 3.2108 15.5752 0
M  V30 37 C -0.0645 3.3214 15.8835 0
M  V30 38 H 0.7643 3.5493 19.6548 0
M  V30 39 C -0.8133 3.5160 18.1900 0
M  V30 40 C 2.9226 -0.8918 13.2918 0
M  V30 41 H 1.7584 -3.3580 15.5641 0
M  V30 42 N 1.2120 -4.5933 19.2904 0
M  V30 43 H 0.9717 -4.8032 17.2487 0
M  V30 44 C -0.3803 3.1610 14.4720 0
M  V30 45 C -1.0922 3.4384 16.8178 0
M  V30 46 C -1.8864 3.5313 19.1916 0
M  V30 47 C 2.8967 -0.4597 11.9031 0
M  V30 48 C 0.3642 -5.7680 19.5115 0
M  V30 49 C -0.6684 2.9824 13.2982 0
M  V30 50 H -2.1195 3.4293 16.4780 0
M  V30 51 N -3.1038 3.7966 18.9150 0
M  V30 52 H -1.5649 3.2811 20.2003 0
M  V30 53 C 2.0584 0.5883 11.5182 0
M  V30 54 C 3.7080 -1.0959 10.9626 0
M  V30 55 C -1.0745 -5.3473 19.9662 0
M  V30 56 C 1.0380 -6.6717 20.5681 0
M  V30 57 H 0.2493 -6.3853 18.6122 0
M  V30 58 C -1.0327 2.7403 11.9109 0
M  V30 59 C -4.0942 3.6162 19.9760 0
M  V30 60 C 2.0328 1.0039 10.1881 0
M  V30 61 H 1.4284 1.0817 12.2444 0
M  V30 62 H 4.3585 -1.9073 11.2572 0
M  V30 63 C 3.6855 -0.6779 9.6335 0
M  V30 64 N -1.7258 -4.5786 18.9061 0
M  V30 65 H -0.9587 -4.7848 20.9003 0
M  V30 66 C -1.9367 -6.5885 20.2910 0
M  V30 67 C 0.1706 -7.9011 20.9136 0
M  V30 68 H 2.0150 -6.9996 20.2099 0
M  V30 69 H 1.2266 -6.0973 21.4769 0
M  V30 70 C -0.8870 3.7576 10.9667 0
M  V30 71 C -1.5248 1.4902 11.5313 0
M  V30 72 C -5.1793 2.5822 19.5212 0
M  V30 73 H -3.6642 3.2328 20.9090 0
M  V30 74 C -4.7364 4.9835 20.3038 0
M  V30 75 H 1.3812 1.8146 9.8940 0
M  V30 76 C 2.8509 0.3733 9.2491 0
M  V30 77 H 4.3196 -1.1684 8.9088 0
M  V30 78 C -2.1055 -3.3921 19.1840 0
M  V30 79 H -2.1214 -7.1578 19.3781 0
M  V30 80 H -2.9164 -6.2770 20.6559 0
M  V30 81 C -1.2593 -7.5038 21.3330 0
M  V30 82 H 0.1224 -8.5645 20.0482 0
M  V30 83 H 0.6448 -8.4782 21.7089 0
M  V30 84 H -0.5068 4.7268 11.2572 0
M  V30 85 C -1.2413 3.5255 9.6392 0
M  V30 86 C -1.8756 1.2566 10.2028 0
M  V30 87 H -1.6374 0.7007 12.2604 0
M  V30 88 N -4.5872 1.2605 19.2971 0
M  V30 89 C -6.2975 2.4498 20.5792 0
M  V30 90 H -5.6574 2.9921 18.6232 0
M  V30 91 H -5.1382 5.4298 19.3922 0
M  V30 92 H -3.9756 5.6751 20.6685 0
M  V30 93 C -5.8661 4.8538 21.3475 0
M  V30 94 C 2.8423 0.8143 7.8629 0
M  V30 95 H -2.0507 -2.9898 20.1933 0
M  V30 96 C -2.6284 -2.4544 18.1829 0
M  V30 97 H -1.2245 -6.9920 22.2964 0
M  V30 98 H -1.8631 -8.3990 21.4892 0
M  V30 99 C -1.7383 2.2770 9.2601 0
M  V30 100 H -1.1336 4.3172 8.9115 0
M  V30 101 H -2.2549 0.2869 9.9129 0
M  V30 102 C -4.3748 0.9251 18.0823 0
M  V30 103 H -7.0712 1.7691 20.2210 0
M  V30 104 H -5.8935 1.9973 21.4867 0
M  V30 105 C -6.9266 3.8157 20.9280 0
M  V30 106 H -5.4390 4.5659 22.3098 0
M  V30 107 H -6.3384 5.8245 21.5060 0
M  V30 108 C 2.8556 1.1612 6.6914 0
M  V30 109 C -3.2878 -1.2870 18.5920 0
M  V30 110 C -2.4207 -2.6564 16.8108 0
M  V30 111 C -2.1202 2.0454 7.8756 0
M  V30 112 C -3.7272 -0.3261 17.6669 0
M  V30 113 H -4.6493 1.5780 17.2561 0
M  V30 114 H -7.6624 3.6930 21.7243 0
M  V30 115 H -7.4781 4.1912 20.0642 0
M  V30 116 C 2.8588 1.5295 5.2834 0
M  V30 117 H -3.4469 -1.1050 19.6475 0
M  V30 118 C -2.8323 -1.7077 15.8766 0
M  V30 119 H -1.8990 -3.5415 16.4710 0
M  V30 120 C -2.4314 1.8814 6.7055 0
M  V30 121 C -3.4895 -0.5545 16.3050 0
M  V30 122 C 2.2063 2.6861 4.8573 0
M  V30 123 C 3.4822 0.7039 4.3494 0
M  V30 124 C -2.5349 -1.9012 14.4653 0
M  V30 125 C -2.7568 1.6995 5.2987 0
M  V30 126 H -3.7921 0.1776 15.5680 0
M  V30 127 C 2.1523 3.0224 3.4981 0
M  V30 128 H 1.7175 3.3098 5.5941 0
M  V30 129 C 3.4352 1.0011 2.9796 0
M  V30 130 H 3.9742 -0.1988 4.6867 0
M  V30 131 C -2.2361 -2.0635 13.2919 0
M  V30 132 C -2.3566 2.6521 4.3632 0
M  V30 133 C -3.4341 0.5564 4.8750 0
M  V30 134 C 1.4092 4.2198 3.0845 0
M  V30 135 C 2.7713 2.1665 2.5729 0
M  V30 136 C 3.9904 0.0839 1.9771 0
M  V30 137 C -1.8452 -2.2616 11.9049 0
M  V30 138 C -2.5956 2.4633 2.9943 0
M  V30 139 H -1.8193 3.5292 4.6987 0
M  V30 140 C -3.7032 0.3416 3.5166 0
M  V30 141 H -3.7275 -0.1787 5.6128 0
M  V30 142 N 1.2374 4.5822 1.8709 0
M  V30 143 H 0.9801 4.7822 3.9114 0
M  V30 144 H 2.7115 2.4076 1.5189 0
M  V30 145 N 4.8247 -0.8413 2.2550 0
M  V30 146 H 3.6198 0.2431 0.9667 0
M  V30 147 C -0.5184 -2.0566 11.5220 0
M  V30 148 C -2.7985 -2.6537 10.9642 0
M  V30 149 C -2.0821 3.4025 1.9899 0
M  V30 150 C -3.2745 1.3057 2.5900 0
M  V30 151 C -4.3706 -0.9002 3.1050 0
M  V30 152 C 0.3980 5.7632 1.6509 0
M  V30 153 C 5.1602 -1.7907 1.1941 0
M  V30 154 H 0.2213 -1.7517 12.2485 0
M  V30 155 C -0.1421 -2.2470 10.1937 0
M  V30 156 C -2.4217 -2.8479 9.6369 0
M  V30 157 H -3.8265 -2.8138 11.2572 0
M  V30 158 N -1.6966 4.5874 2.2667 0
M  V30 159 H -2.0388 3.0022 0.9793 0
M  V30 160 H -3.4573 1.1336 1.5366 0
M  V30 161 N -4.6049 -1.2284 1.8920 0
M  V30 162 H -4.6387 -1.5543 3.9324 0
M  V30 163 C -1.0464 5.3532 1.2036 0
M  V30 164 C 1.0734 6.6603 0.5896 0
M  V30 165 H 0.2928 6.3830 2.5497 0
M  V30 166 C 4.7922 -3.2449 1.6461 0
M  V30 167 H 4.6183 -1.6042 0.2592 0
M  V30 168 C 6.6675 -1.6771 0.8717 0
M  V30 169 C -1.0939 -2.6477 9.2544 0
M  V30 170 H 0.8858 -2.0857 9.9011 0
M  V30 171 H -3.1608 -3.1578 8.9119 0
M  V30 172 C -5.2090 -2.5456 1.6729 0
M  V30 173 H -0.9394 4.7907 0.2684 0
M  V30 174 C -1.9010 6.6007 0.8839 0
M  V30 175 C 0.2135 7.8961 0.2478 0
M  V30 176 H 2.0548 6.9808 0.9422 0
M  V30 177 H 1.2524 6.0833 -0.3195 0
M  V30 178 N 3.3501 -3.3790 1.8703 0
M  V30 179 C 5.2274 -4.2813 0.5862 0
M  V30 180 H 5.3836 -3.4621 2.5439 0
M  V30 181 C 7.1123 -2.7227 -0.1731 0
M  V30 182 H 7.2505 -1.8097 1.7849 0
M  V30 183 H 6.8970 -0.6738 0.5098 0
M  V30 184 C -0.7044 -2.8652 7.8699 0
M  V30 185 C -4.1340 -3.5901 1.2169 0
M  V30 186 C -6.3299 -2.4074 0.6187 0
M  V30 187 H -5.6874 -2.9487 2.5737 0
M  V30 188 H -2.0759 7.1715 1.7978 0
M  V30 189 H -2.8852 6.2966 0.5248 0
M  V30 190 C -1.2223 7.5101 -0.1626 0
M  V30 191 H 0.1756 8.5607 1.1128 0
M  V30 192 H 0.6875 8.4686 -0.5509 0
M  V30 193 C 2.9535 -3.3426 3.0848 0
M  V30 194 H 4.6365 -4.1489 -0.3219 0
M  V30 195 H 5.0134 -5.2904 0.9414 0
M  V30 196 C 6.7270 -4.1577 0.2409 0
M  V30 197 H 6.6550 -2.4894 -1.1363 0
M  V30 198 H 8.1903 -2.6574 -0.3282 0
M  V30 199 C -0.4100 -3.0537 6.6991 0
M  V30 200 N -3.1394 -3.7718 2.2738 0
M  V30 201 H -3.7061 -3.2143 0.2798 0
M  V30 202 C -4.7885 -4.9537 0.8987 0
M  V30 203 C -6.9718 -3.7695 0.2780 0
M  V30 204 H -5.9255 -1.9618 -0.2920 0
M  V30 205 H -7.0963 -1.7187 0.9774 0
M  V30 206 H -1.1975 6.9976 -1.1259 0
M  V30 207 H -1.8198 8.4101 -0.3158 0
M  V30 208 H 3.6574 -3.2512 3.9097 0
M  V30 209 C 1.5461 -3.3853 3.5021 0
M  V30 210 H 6.9830 -4.8564 -0.5569 0
M  V30 211 H 7.3229 -4.4566 1.1052 0
M  V30 212 C -0.0954 -3.2450 5.2912 0
M  V30 213 C -1.9223 -3.5113 1.9909 0
M  V30 214 C -5.9219 -4.8190 -0.1406 0
M  V30 215 H -5.1897 -5.3923 1.8143 0
M  V30 216 H -4.0351 -5.6530 0.5337 0
M  V30 217 H -7.5235 -4.1364 1.1454 0
M  V30 218 H -7.7093 -3.6439 -0.5163 0
M  V30 219 C 1.2313 -3.2600 4.8619 0
M  V30 220 C 0.4929 -3.4955 2.5798 0
M  V30 221 C -1.1244 -3.3745 4.3601 0
M  V30 222 C -0.8473 -3.4866 2.9899 0
M  V30 223 H -1.6029 -3.2717 0.9789 0
M  V30 224 H -5.4965 -4.5395 -1.1061 0
M  V30 225 H -6.4033 -5.7863 -0.2925 0
M  V30 226 H 2.0177 -3.1469 5.5964 0
M  V30 227 H 0.7288 -3.5673 1.5254 0
M  V30 228 H -2.1513 -3.3479 4.7000 0
M  V30 END ATOM
M  V30 BEGIN BOND
M  V30 0 1 2 1
M  V30 1 1 3 1
M  V30 2 1 4 1
M  V30 3 1 5 1
M  V30 4 1 6 2
M  V30 5 1 7 2
M  V30 6 1 8 2
M  V30 7 1 9 5
M  V30 8 1 10 5
M  V30 9 1 11 5
M  V30 10 1 12 6
M  V30 11 1 13 6
M  V30 12 1 14 6
M  V30 13 1 14 9
M  V30 14 1 15 9
M  V30 15 1 16 9
M  V30 16 1 17 12
M  V30 17 1 18 14
M  V30 18 1 19 14
M  V30 19 1 20 17
M  V30 20 1 21 17
M  V30 21 1 22 18
M  V30 22 1 23 20
M  V30 23 1 24 20
M  V30 24 1 25 22
M  V30 25 1 26 22
M  V30 26 1 27 23
M  V30 27 1 28 23
M  V30 28 1 29 24
M  V30 29 1 30 24
M  V30 30 1 31 26
M  V30 31 1 32 26
M  V30 32 1 33 27
M  V30 33 1 34 27
M  V30 34 1 34 29
M  V30 35 1 35 29
M  V30 36 1 36 31
M  V30 37 1 37 31
M  V30 38 1 38 32
M  V30 39 1 39 32
M  V30 40 1 40 33
M  V30 41 1 41 34
M  V30 42 1 42 35
M  V30 43 1 43 35
M  V30 44 1 44 37
M  V30 45 1 45 37
M  V30 46 1 45 39
M  V30 47 1 46 39
M  V30 48 1 47 40
M  V30 49 1 48 42
M  V30 50 1 49 44
M  V30 51 1 50 45
M  V30 52 1 51 46
M  V30 53 1 52 46
M  V30 54 1 53 47
M  V30 55 1 54 47
M  V30 56 1 55 48
M  V30 57 1 56 48
M  V30 58 1 57 48
M  V30 59 1 58 49
M  V30 60 1 59 51
M  V30 61 1 60 53
M  V30 62 1 61 53
M  V30 63 1 62 54
M  V30 64 1 63 54
M  V30 65 1 64 55
M  V30 66 1 65 55
M  V30 67 1 66 55
M  V30 68 1 67 56
M  V30 69 1 68 56
M  V30 70 1 69 56
M  V30 71 1 70 58
M  V30 72 1 71 58
M  V30 73 1 72 59
M  V30 74 1 73 59
M  V30 75 1 74 59
M  V30 76 1 75 60
M  V30 77 1 76 63
M  V30 78 1 76 60
M  V30 79 1 77 63
M  V30 80 1 78 64
M  V30 81 1 79 66
M  V30 82 1 80 66
M  V30 83 1 81 67
M  V30 84 1 81 66
M  V30 85 1 82 67
M  V30 86 1 83 67
M  V30 87 1 84 70
M  V30 88 1 85 70
M  V30 89 1 86 71
M  V30 90 1 87 71
M  V30 91 1 88 72
M  V30 92 1 89 72
M  V30 93 1 90 72
M  V30 94 1 91 74
M  V30 95 1 92 74
M  V30 96 1 93 74
M  V30 97 1 94 76
M  V30 98 1 95 78
M  V30 99 1 96 78
M  V30 100 1 97 81
M  V30 101 1 98 81
M  V30 102 1 99 86
M  V30 103 1 99 85
M  V30 104 1 100 85
M  V30 105 1 101 86
M  V30 106 1 102 88
M  V30 107 1 103 89
M  V30 108 1 104 89
M  V30 109 1 105 93
M  V30 110 1 105 89
M  V30 111 1 106 93
M  V30 112 1 107 93
M  V30 113 1 108 94
M  V30 114 1 109 96
M  V30 115 1 110 96
M  V30 116 1 111 99
M  V30 117 1 112 109
M  V30 118 1 112 102
M  V30 119 1 113 102
M  V30 120 1 114 105
M  V30 121 1 115 105
M  V30 122 1 116 108
M  V30 123 1 117 109
M  V30 124 1 118 110
M  V30 125 1 119 110
M  V30 126 1 120 111
M  V30 127 1 121 118
M  V30 128 1 121 112
M  V30 129 1 122 116
M  V30 130 1 123 116
M  V30 131 1 124 118
M  V30 132 1 125 120
M  V30 133 1 126 121
M  V30 134 1 127 122
M  V30 135 1 128 122
M  V30 136 1 129 123
M  V30 137 1 130 123
M  V30 138 1 131 124
M  V30 139 1 132 125
M  V30 140 1 133 125
M  V30 141 1 134 127
M  V30 142 1 135 129
M  V30 143 1 135 127
M  V30 144 1 136 129
M  V30 145 1 137 131
M  V30 146 1 138 132
M  V30 147 1 139 132
M  V30 148 1 140 133
M  V30 149 1 141 133
M  V30 150 1 142 134
M  V30 151 1 143 134
M  V30 152 1 144 135
M  V30 153 1 145 136
M  V30 154 1 146 136
M  V30 155 1 147 137
M  V30 156 1 148 137
M  V30 157 1 149 138
M  V30 158 1 150 140
M  V30 159 1 150 138
M  V30 160 1 151 140
M  V30 161 1 152 142
M  V30 162 1 153 145
M  V30 163 1 154 147
M  V30 164 1 155 147
M  V30 165 1 156 148
M  V30 166 1 157 148
M  V30 167 1 158 149
M  V30 168 1 159 149
M  V30 169 1 160 150
M  V30 170 1 161 151
M  V30 171 1 162 151
M  V30 172 1 163 158
M  V30 173 1 163 152
M  V30 174 1 164 152
M  V30 175 1 165 152
M  V30 176 1 166 153
M  V30 177 1 167 153
M  V30 178 1 168 153
M  V30 179 1 169 156
M  V30 180 1 169 155
M  V30 181 1 170 155
M  V30 182 1 171 156
M  V30 183 1 172 161
M  V30 184 1 173 163
M  V30 185 1 174 163
M  V30 186 1 175 164
M  V30 187 1 176 164
M  V30 188 1 177 164
M  V30 189 1 178 166
M  V30 190 1 179 166
M  V30 191 1 180 166
M  V30 192 1 181 168
M  V30 193 1 182 168
M  V30 194 1 183 168
M  V30 195 1 184 169
M  V30 196 1 185 172
M  V30 197 1 186 172
M  V30 198 1 187 172
M  V30 199 1 188 174
M  V30 200 1 189 174
M  V30 201 1 190 175
M  V30 202 1 190 174
M  V30 203 1 191 175
M  V30 204 1 192 175
M  V30 205 1 193 178
M  V30 206 1 194 179
M  V30 207 1 195 179
M  V30 208 1 196 181
M  V30 209 1 196 179
M  V30 210 1 197 181
M  V30 211 1 198 181
M  V30 212 1 199 184
M  V30 213 1 200 185
M  V30 214 1 201 185
M  V30 215 1 202 185
M  V30 216 1 203 186
M  V30 217 1 204 186
M  V30 218 1 205 186
M  V30 219 1 206 190
M  V30 220 1 207 190
M  V30 221 1 208 193
M  V30 222 1 209 193
M  V30 223 1 210 196
M  V30 224 1 211 196
M  V30 225 1 212 199
M  V30 226 1 213 200
M  V30 227 1 214 203
M  V30 228 1 214 202
M  V30 229 1 215 202
M  V30 230 1 216 202
M  V30 231 1 217 203
M  V30 232 1 218 203
M  V30 233 1 219 212
M  V30 234 1 219 209
M  V30 235 1 220 209
M  V30 236 1 221 212
M  V30 237 1 222 221
M  V30 238 1 222 220
M  V30 239 1 222 213
M  V30 240 1 223 213
M  V30 241 1 224 214
M  V30 242 1 225 214
M  V30 243 1 226 219
M  V30 244 1 227 220
M  V30 245 1 228 221
M  V30 END BOND
M  V30 END CTAB
M  END

$$$$
