
     RDKit          3D

124130  0  0  0  0  0  0  0  0999 V2000
   -1.0210   -3.1777    1.5671 Cl  0  0  0  0  0  0  0  0  0  0  0  0
   -0.0672   -4.2634    0.5468 C   0  0  0  0  0  0  0  0  0  0  0  0
    0.1947   -4.0995   -0.8405 C   0  0  0  0  0  0  0  0  0  0  0  0
    1.1147   -3.3006   -1.6601 C   0  0  0  0  0  0  0  0  0  0  0  0
    0.4543   -2.2154   -2.3959 N   0  0  0  0  0  0  0  0  0  0  0  0
    1.4765   -1.2988   -2.7861 C   0  0  0  0  0  0  0  0  0  0  0  0
    1.1738   -0.4943   -4.0135 C   0  0  0  0  0  0  0  0  0  0  0  0
    2.0748    0.6492   -3.9766 N   0  0  0  0  0  0  0  0  0  0  0  0
    1.7054    1.7087   -4.8551 C   0  0  0  0  0  0  0  0  0  0  0  0
    1.8440    3.0981   -4.4009 C   0  0  0  0  0  0  0  0  0  0  0  0
    0.9932    4.1625   -4.3562 N   0  0  0  0  0  0  0  0  0  0  0  0
    0.1469    4.3335   -3.2650 C   0  0  0  0  0  0  0  0  0  0  0  0
   -0.7003    5.5229   -3.3330 C   0  0  0  0  0  0  0  0  0  0  0  0
   -1.9978    5.3088   -3.9835 N   0  0  0  0  0  0  0  0  0  0  0  0
   -3.0580    5.0857   -3.0381 C   0  0  0  0  0  0  0  0  0  0  0  0
   -4.1595    4.2069   -3.6200 C   0  0  0  0  0  0  0  0  0  0  0  0
   -3.9155    2.8742   -3.1940 N   0  0  0  0  0  0  0  0  0  0  0  0
   -5.1242    2.0973   -2.9263 C   0  0  0  0  0  0  0  0  0  0  0  0
   -5.0226    1.0121   -1.9291 C   0  0  0  0  0  0  0  0  0  0  0  0
   -4.0023    0.1192   -2.2159 N   0  0  0  0  0  0  0  0  0  0  0  0
   -3.6079   -0.8410   -1.3694 C   0  0  0  0  0  0  0  0  0  0  0  0
   -3.9279   -2.2585   -1.2891 C   0  0  0  0  0  0  0  0  0  0  0  0
   -5.3035   -2.6540   -1.1775 N   0  0  0  0  0  0  0  0  0  0  0  0
   -5.3819   -4.0771   -1.4077 C   0  0  0  0  0  0  0  0  0  0  0  0
   -4.4971   -4.8854   -0.5029 C   0  0  0  0  0  0  0  0  0  0  0  0
   -3.3057   -5.2743   -1.2098 N   0  0  0  0  0  0  0  0  0  0  0  0
   -2.4884   -6.2218   -0.4954 C   0  0  0  0  0  0  0  0  0  0  0  0
   -1.0365   -6.1436   -0.7377 C   0  0  0  0  0  0  0  0  0  0  0  0
   -0.2444   -5.2781   -1.4317 N   0  0  0  0  0  0  0  0  0  0  0  0
    0.0261   -6.4282    0.0632 N   0  0  0  0  0  0  0  0  0  0  0  0
    0.5376   -5.4840    0.9418 C   0  0  0  0  0  0  0  0  0  0  0  0
    1.7650   -5.8703    1.6497 C   0  0  0  0  0  0  0  0  0  0  0  0
    1.5398   -6.2243    3.0559 N   0  0  0  0  0  0  0  0  0  0  0  0
    2.3985   -5.4994    3.9491 C   0  0  0  0  0  0  0  0  0  0  0  0
    1.7356   -4.3470    4.6424 C   0  0  0  0  0  0  0  0  0  0  0  0
    2.7200   -3.7085    5.4835 N   0  0  0  0  0  0  0  0  0  0  0  0
    3.5483   -2.7575    4.7381 C   0  0  0  0  0  0  0  0  0  0  0  0
    2.8473   -1.4378    4.5548 C   0  0  0  0  0  0  0  0  0  0  0  0
    2.0121   -1.2116    3.5042 N   0  0  0  0  0  0  0  0  0  0  0  0
    2.2939   -0.4578    2.4139 C   0  0  0  0  0  0  0  0  0  0  0  0
    1.2561    0.2192    1.6577 C   0  0  0  0  0  0  0  0  0  0  0  0
    0.5260    1.2836    2.3348 N   0  0  0  0  0  0  0  0  0  0  0  0
   -0.8027    0.7696    2.6633 C   0  0  0  0  0  0  0  0  0  0  0  0
   -1.8323    1.8617    2.7478 C   0  0  0  0  0  0  0  0  0  0  0  0
   -3.1707    1.3964    2.3974 N   0  0  0  0  0  0  0  0  0  0  0  0
   -3.4675    1.8952    1.0468 C   0  0  0  0  0  0  0  0  0  0  0  0
   -4.1265    0.9177    0.1707 C   0  0  0  0  0  0  0  0  0  0  0  0
   -3.2144    0.0792   -0.4532 N   0  0  0  0  0  0  0  0  0  0  0  0
   -5.3314    0.7642   -0.5660 C   0  0  0  0  0  0  0  0  0  0  0  0
   -6.9293    0.4088    0.1022 Cl  0  0  0  0  0  0  0  0  0  0  0  0
    3.6002   -0.2008    2.7248 N   0  0  0  0  0  0  0  0  0  0  0  0
    3.7461    0.5647    3.8980 C   0  0  0  0  0  0  0  0  0  0  0  0
    4.6962    1.6440    3.8018 C   0  0  0  0  0  0  0  0  0  0  0  0
    4.1793    2.9074    3.2628 N   0  0  0  0  0  0  0  0  0  0  0  0
    4.4243    2.8887    1.8217 C   0  0  0  0  0  0  0  0  0  0  0  0
    3.4799    3.7769    1.0735 C   0  0  0  0  0  0  0  0  0  0  0  0
    3.7343    3.6343   -0.3332 N   0  0  0  0  0  0  0  0  0  0  0  0
    2.8844    4.5006   -1.1558 C   0  0  0  0  0  0  0  0  0  0  0  0
    2.0457    3.7746   -2.1159 C   0  0  0  0  0  0  0  0  0  0  0  0
    2.5653    3.6738   -3.3999 N   0  0  0  0  0  0  0  0  0  0  0  0
    0.6658    3.4728   -2.2601 C   0  0  0  0  0  0  0  0  0  0  0  0
   -0.2260    2.2105   -1.3969 Cl  0  0  0  0  0  0  0  0  0  0  0  0
    2.9295   -0.0511    4.8681 C   0  0  0  0  0  0  0  0  0  0  0  0
    2.1529    0.6043    6.3244 Cl  0  0  0  0  0  0  0  0  0  0  0  0
    1.7644   -3.7766   -2.4075 H   0  0  0  0  0  0  0  0  0  0  0  0
    1.9287   -2.7604   -1.0972 H   0  0  0  0  0  0  0  0  0  0  0  0
    0.0166   -2.6238   -3.2644 H   0  0  0  0  0  0  0  0  0  0  0  0
    1.6023   -0.5685   -1.9466 H   0  0  0  0  0  0  0  0  0  0  0  0
    2.4714   -1.7915   -2.9019 H   0  0  0  0  0  0  0  0  0  0  0  0
    1.4343   -1.0861   -4.9140 H   0  0  0  0  0  0  0  0  0  0  0  0
    0.1306   -0.1476   -4.0345 H   0  0  0  0  0  0  0  0  0  0  0  0
    2.3436    0.9279   -3.0203 H   0  0  0  0  0  0  0  0  0  0  0  0
    2.3608    1.5782   -5.7605 H   0  0  0  0  0  0  0  0  0  0  0  0
    0.7069    1.4067   -5.2503 H   0  0  0  0  0  0  0  0  0  0  0  0
   -0.3113    6.4694   -3.7705 H   0  0  0  0  0  0  0  0  0  0  0  0
   -1.0267    5.9659   -2.3509 H   0  0  0  0  0  0  0  0  0  0  0  0
   -1.9182    4.4989   -4.6468 H   0  0  0  0  0  0  0  0  0  0  0  0
   -3.4535    6.0887   -2.7418 H   0  0  0  0  0  0  0  0  0  0  0  0
   -2.6213    4.6153   -2.1369 H   0  0  0  0  0  0  0  0  0  0  0  0
   -5.1436    4.5547   -3.2190 H   0  0  0  0  0  0  0  0  0  0  0  0
   -4.1930    4.2766   -4.7209 H   0  0  0  0  0  0  0  0  0  0  0  0
   -3.3311    2.3700   -3.8880 H   0  0  0  0  0  0  0  0  0  0  0  0
   -5.7881    2.9555   -2.6216 H   0  0  0  0  0  0  0  0  0  0  0  0
   -5.6603    1.8237   -3.8750 H   0  0  0  0  0  0  0  0  0  0  0  0
   -3.5321   -2.8730   -2.1468 H   0  0  0  0  0  0  0  0  0  0  0  0
   -3.4454   -2.8143   -0.4400 H   0  0  0  0  0  0  0  0  0  0  0  0
   -5.9366   -2.1991   -1.8594 H   0  0  0  0  0  0  0  0  0  0  0  0
   -5.1823   -4.3113   -2.4703 H   0  0  0  0  0  0  0  0  0  0  0  0
   -6.4511   -4.3614   -1.2358 H   0  0  0  0  0  0  0  0  0  0  0  0
   -4.3073   -4.4136    0.4757 H   0  0  0  0  0  0  0  0  0  0  0  0
   -5.0454   -5.8349   -0.2739 H   0  0  0  0  0  0  0  0  0  0  0  0
   -3.5936   -5.6102   -2.1472 H   0  0  0  0  0  0  0  0  0  0  0  0
   -2.8874   -7.2129   -0.8487 H   0  0  0  0  0  0  0  0  0  0  0  0
   -2.8486   -6.1429    0.5391 H   0  0  0  0  0  0  0  0  0  0  0  0
    2.3927   -6.6898    1.2842 H   0  0  0  0  0  0  0  0  0  0  0  0
    2.5697   -5.0836    1.7029 H   0  0  0  0  0  0  0  0  0  0  0  0
    1.5435   -7.2495    3.2059 H   0  0  0  0  0  0  0  0  0  0  0  0
    2.8822   -6.1526    4.6839 H   0  0  0  0  0  0  0  0  0  0  0  0
    3.2198   -5.0675    3.3225 H   0  0  0  0  0  0  0  0  0  0  0  0
    0.9710   -4.7840    5.3339 H   0  0  0  0  0  0  0  0  0  0  0  0
    1.2375   -3.6570    3.9481 H   0  0  0  0  0  0  0  0  0  0  0  0
    3.3198   -4.4471    5.8819 H   0  0  0  0  0  0  0  0  0  0  0  0
    4.0042   -3.2033    3.8454 H   0  0  0  0  0  0  0  0  0  0  0  0
    4.4538   -2.6748    5.4008 H   0  0  0  0  0  0  0  0  0  0  0  0
    1.6299    0.7417    0.7284 H   0  0  0  0  0  0  0  0  0  0  0  0
    0.4976   -0.4384    1.1534 H   0  0  0  0  0  0  0  0  0  0  0  0
    0.3728    2.1250    1.7629 H   0  0  0  0  0  0  0  0  0  0  0  0
   -1.1373    0.0591    1.8710 H   0  0  0  0  0  0  0  0  0  0  0  0
   -0.7727    0.2646    3.6578 H   0  0  0  0  0  0  0  0  0  0  0  0
   -1.8459    2.3373    3.7567 H   0  0  0  0  0  0  0  0  0  0  0  0
   -1.5134    2.6755    2.0484 H   0  0  0  0  0  0  0  0  0  0  0  0
   -3.1227    0.3481    2.3390 H   0  0  0  0  0  0  0  0  0  0  0  0
   -2.6111    2.4988    0.6477 H   0  0  0  0  0  0  0  0  0  0  0  0
   -4.0935    2.7873    1.3372 H   0  0  0  0  0  0  0  0  0  0  0  0
    5.6447    1.4910    3.2173 H   0  0  0  0  0  0  0  0  0  0  0  0
    5.2399    1.9773    4.7297 H   0  0  0  0  0  0  0  0  0  0  0  0
    4.6779    3.7342    3.6260 H   0  0  0  0  0  0  0  0  0  0  0  0
    5.4576    3.2602    1.6439 H   0  0  0  0  0  0  0  0  0  0  0  0
    4.3825    1.8763    1.3960 H   0  0  0  0  0  0  0  0  0  0  0  0
    3.7470    4.8323    1.3362 H   0  0  0  0  0  0  0  0  0  0  0  0
    2.4243    3.5917    1.3386 H   0  0  0  0  0  0  0  0  0  0  0  0
    3.4724    2.6511   -0.6006 H   0  0  0  0  0  0  0  0  0  0  0  0
    2.3388    5.1202   -0.3895 H   0  0  0  0  0  0  0  0  0  0  0  0
    3.5658    5.3010   -1.5011 H   0  0  0  0  0  0  0  0  0  0  0  0
  1  2  1  0
  2  3  2  0
  3  4  1  0
  4  5  1  0
  5  6  1  0
  6  7  1  0
  7  8  1  0
  8  9  1  0
  9 10  1  0
 10 11  2  0
 11 12  1  0
 12 13  1  0
 13 14  1  0
 14 15  1  0
 15 16  1  0
 16 17  1  0
 17 18  1  0
 18 19  1  0
 19 20  1  0
 20 21  2  0
 21 22  1  0
 22 23  1  0
 23 24  1  0
 24 25  1  0
 25 26  1  0
 26 27  1  0
 27 28  1  0
 28 29  2  0
 28 30  1  0
 30 31  2  0
 31 32  1  0
 32 33  1  0
 33 34  1  0
 34 35  1  0
 35 36  1  0
 36 37  1  0
 37 38  1  0
 38 39  2  0
 39 40  1  0
 40 41  1  0
 41 42  1  0
 42 43  1  0
 43 44  1  0
 44 45  1  0
 45 46  1  0
 46 47  1  0
 47 48  2  0
 47 49  1  0
 49 50  1  0
 40 51  2  0
 51 52  1  0
 52 53  1  0
 53 54  1  0
 54 55  1  0
 55 56  1  0
 56 57  1  0
 57 58  1  0
 58 59  1  0
 59 60  2  0
 59 61  1  0
 61 62  1  0
 52 63  2  0
 63 64  1  0
 31  2  1  0
 63 38  1  0
 29  3  1  0
 60 10  1  0
 61 12  2  0
 49 19  2  0
 48 21  1  0
  4 65  1  0
  4 66  1  0
  5 67  1  0
  6 68  1  0
  6 69  1  0
  7 70  1  0
  7 71  1  0
  8 72  1  0
  9 73  1  0
  9 74  1  0
 13 75  1  0
 13 76  1  0
 14 77  1  0
 15 78  1  0
 15 79  1  0
 16 80  1  0
 16 81  1  0
 17 82  1  0
 18 83  1  0
 18 84  1  0
 22 85  1  0
 22 86  1  0
 23 87  1  0
 24 88  1  0
 24 89  1  0
 25 90  1  0
 25 91  1  0
 26 92  1  0
 27 93  1  0
 27 94  1  0
 32 95  1  0
 32 96  1  0
 33 97  1  0
 34 98  1  0
 34 99  1  0
 35100  1  0
 35101  1  0
 36102  1  0
 37103  1  0
 37104  1  0
 41105  1  0
 41106  1  0
 42107  1  0
 43108  1  0
 43109  1  0
 44110  1  0
 44111  1  0
 45112  1  0
 46113  1  0
 46114  1  0
 53115  1  0
 53116  1  0
 54117  1  0
 55118  1  0
 55119  1  0
 56120  1  0
 56121  1  0
 57122  1  0
 58123  1  0
 58124  1  0
M  END
