
     RDKit          3D

144150  0  0  0  0  0  0  0  0999 V2000
   -4.3752   -5.0578    0.1329 O   0  0  0  0  0  0  0  0  0  0  0  0
   -3.9097   -4.8461    1.1084 C   0  0  0  0  0  0  0  0  0  0  0  0
   -4.3013   -6.2111    1.6035 C   0  0  0  0  0  0  0  0  0  0  0  0
   -3.3057   -6.8033    2.4508 N   0  0  0  0  0  0  0  0  0  0  0  0
   -2.4723   -5.8527    3.1370 C   0  0  0  0  0  0  0  0  0  0  0  0
   -1.0172   -5.9398    2.6904 C   0  0  0  0  0  0  0  0  0  0  0  0
   -0.2816   -4.8650    3.3059 N   0  0  0  0  0  0  0  0  0  0  0  0
    1.0801   -5.2264    3.6011 C   0  0  0  0  0  0  0  0  0  0  0  0
    2.0228   -4.0646    3.4383 C   0  0  0  0  0  0  0  0  0  0  0  0
    2.9795   -5.0159    3.6037 N   0  0  0  0  0  0  0  0  0  0  0  0
    3.9811   -4.6528    2.7561 C   0  0  0  0  0  0  0  0  0  0  0  0
    5.4429   -5.7471    2.1583 Br  0  0  0  0  0  0  0  0  0  0  0  0
    3.5370   -3.4809    2.1460 C   0  0  0  0  0  0  0  0  0  0  0  0
    4.1900   -4.0718    0.9254 C   0  0  0  0  0  0  0  0  0  0  0  0
    4.8329   -3.0358    0.0567 C   0  0  0  0  0  0  0  0  0  0  0  0
    3.8444   -2.4453   -0.8426 N   0  0  0  0  0  0  0  0  0  0  0  0
    4.3486   -2.3286   -2.1959 C   0  0  0  0  0  0  0  0  0  0  0  0
    3.2661   -2.6163   -3.2294 C   0  0  0  0  0  0  0  0  0  0  0  0
    2.7385   -1.3644   -3.7048 N   0  0  0  0  0  0  0  0  0  0  0  0
    2.2365   -1.4967   -5.0430 C   0  0  0  0  0  0  0  0  0  0  0  0
    1.2382   -0.4242   -5.3931 C   0  0  0  0  0  0  0  0  0  0  0  0
    1.4965   -0.5563   -6.6036 O   0  0  0  0  0  0  0  0  0  0  0  0
    0.2015    0.6603   -5.4598 C   0  0  0  0  0  0  0  0  0  0  0  0
    0.2752    2.0644   -5.2397 C   0  0  0  0  0  0  0  0  0  0  0  0
    0.3877    3.4766   -4.7377 C   0  0  0  0  0  0  0  0  0  0  0  0
   -0.8751    3.9454   -4.1913 N   0  0  0  0  0  0  0  0  0  0  0  0
   -0.7703    4.3408   -2.8079 C   0  0  0  0  0  0  0  0  0  0  0  0
   -0.1963    5.7345   -2.6414 C   0  0  0  0  0  0  0  0  0  0  0  0
    0.9908    5.6906   -1.8265 N   0  0  0  0  0  0  0  0  0  0  0  0
    1.0519    6.7334   -0.8359 C   0  0  0  0  0  0  0  0  0  0  0  0
    1.3158    6.0904    0.5000 C   0  0  0  0  0  0  0  0  0  0  0  0
    0.0494    6.4765    0.8079 N   0  0  0  0  0  0  0  0  0  0  0  0
   -0.5065    5.4434    1.4980 C   0  0  0  0  0  0  0  0  0  0  0  0
   -2.3770    5.1588    1.8312 Br  0  0  0  0  0  0  0  0  0  0  0  0
    0.5137    4.4971    1.5610 C   0  0  0  0  0  0  0  0  0  0  0  0
   -0.6273    3.5255    1.4272 C   0  0  0  0  0  0  0  0  0  0  0  0
   -0.1487    2.1154    1.2365 C   0  0  0  0  0  0  0  0  0  0  0  0
   -0.5586    1.6177   -0.0505 N   0  0  0  0  0  0  0  0  0  0  0  0
    0.4875    0.9368   -0.7670 C   0  0  0  0  0  0  0  0  0  0  0  0
    0.4528   -0.5499   -0.5440 C   0  0  0  0  0  0  0  0  0  0  0  0
   -0.9096   -0.9364   -0.1852 N   0  0  0  0  0  0  0  0  0  0  0  0
   -0.9165   -2.3919   -0.1574 C   0  0  0  0  0  0  0  0  0  0  0  0
   -2.1587   -2.9133    0.5114 C   0  0  0  0  0  0  0  0  0  0  0  0
   -1.8282   -2.0255    1.4864 N   0  0  0  0  0  0  0  0  0  0  0  0
   -3.0119   -1.5186    1.9254 C   0  0  0  0  0  0  0  0  0  0  0  0
   -3.2907    0.0789    2.9530 Br  0  0  0  0  0  0  0  0  0  0  0  0
   -3.9750   -2.1622    1.1532 C   0  0  0  0  0  0  0  0  0  0  0  0
   -4.6607   -0.8235    1.1913 C   0  0  0  0  0  0  0  0  0  0  0  0
   -5.7371   -0.7244    0.1356 C   0  0  0  0  0  0  0  0  0  0  0  0
   -5.1273   -0.3072   -1.1071 N   0  0  0  0  0  0  0  0  0  0  0  0
   -5.0275    1.1270   -1.2357 C   0  0  0  0  0  0  0  0  0  0  0  0
   -4.7019    1.4402   -2.6896 C   0  0  0  0  0  0  0  0  0  0  0  0
   -3.2855    1.2841   -2.9566 N   0  0  0  0  0  0  0  0  0  0  0  0
   -2.9885    0.1106   -3.7424 C   0  0  0  0  0  0  0  0  0  0  0  0
   -2.6886    0.5028   -5.1605 C   0  0  0  0  0  0  0  0  0  0  0  0
   -1.2157    0.6318   -5.4210 C   0  0  0  0  0  0  0  0  0  0  0  0
   -1.6642    1.7428   -6.1285 C   0  0  0  0  0  0  0  0  0  0  0  0
   -3.3495    1.9215   -6.9898 Br  0  0  0  0  0  0  0  0  0  0  0  0
   -0.6546    2.6517   -6.0380 N   0  0  0  0  0  0  0  0  0  0  0  0
   -3.4321   -3.4416    0.8598 C   0  0  0  0  0  0  0  0  0  0  0  0
    1.7386    5.2169    1.5393 C   0  0  0  0  0  0  0  0  0  0  0  0
    2.8947    5.2561    2.4992 C   0  0  0  0  0  0  0  0  0  0  0  0
    3.6750    4.4836    1.9075 O   0  0  0  0  0  0  0  0  0  0  0  0
    3.8836    5.4763    3.6123 C   0  0  0  0  0  0  0  0  0  0  0  0
    4.4131    4.1992    4.0261 N   0  0  0  0  0  0  0  0  0  0  0  0
    3.3995    3.2199    4.3139 C   0  0  0  0  0  0  0  0  0  0  0  0
    4.0398    1.8520    4.1083 C   0  0  0  0  0  0  0  0  0  0  0  0
    3.0935    0.8716    3.6419 N   0  0  0  0  0  0  0  0  0  0  0  0
    2.9448   -0.2499    4.5453 C   0  0  0  0  0  0  0  0  0  0  0  0
    2.7026   -1.4965    3.7377 C   0  0  0  0  0  0  0  0  0  0  0  0
    1.8798   -0.9102    3.0063 O   0  0  0  0  0  0  0  0  0  0  0  0
    2.6790   -2.8527    3.0902 C   0  0  0  0  0  0  0  0  0  0  0  0
   -5.3076   -6.2199    2.0498 H   0  0  0  0  0  0  0  0  0  0  0  0
   -4.3725   -6.8686    0.6994 H   0  0  0  0  0  0  0  0  0  0  0  0
   -2.6531   -7.4372    1.9176 H   0  0  0  0  0  0  0  0  0  0  0  0
   -2.8334   -4.8171    3.0832 H   0  0  0  0  0  0  0  0  0  0  0  0
   -2.4775   -6.1467    4.2161 H   0  0  0  0  0  0  0  0  0  0  0  0
   -0.6107   -6.9365    2.9127 H   0  0  0  0  0  0  0  0  0  0  0  0
   -0.9855   -5.7894    1.5843 H   0  0  0  0  0  0  0  0  0  0  0  0
   -0.7911   -4.5573    4.1547 H   0  0  0  0  0  0  0  0  0  0  0  0
    1.3434   -6.0583    2.9104 H   0  0  0  0  0  0  0  0  0  0  0  0
    1.1998   -5.5902    4.6350 H   0  0  0  0  0  0  0  0  0  0  0  0
    2.8732   -5.9464    4.0903 H   0  0  0  0  0  0  0  0  0  0  0  0
    3.4739   -4.7224    0.4040 H   0  0  0  0  0  0  0  0  0  0  0  0
    4.9969   -4.7329    1.3174 H   0  0  0  0  0  0  0  0  0  0  0  0
    5.3239   -2.2884    0.6949 H   0  0  0  0  0  0  0  0  0  0  0  0
    5.6427   -3.5475   -0.5216 H   0  0  0  0  0  0  0  0  0  0  0  0
    3.6204   -1.4980   -0.4384 H   0  0  0  0  0  0  0  0  0  0  0  0
    5.2385   -2.9813   -2.3385 H   0  0  0  0  0  0  0  0  0  0  0  0
    4.7329   -1.2818   -2.2930 H   0  0  0  0  0  0  0  0  0  0  0  0
    2.4954   -3.2182   -2.7234 H   0  0  0  0  0  0  0  0  0  0  0  0
    3.7697   -3.1955   -4.0380 H   0  0  0  0  0  0  0  0  0  0  0  0
    3.4827   -0.6200   -3.7207 H   0  0  0  0  0  0  0  0  0  0  0  0
    3.1117   -1.3598   -5.7278 H   0  0  0  0  0  0  0  0  0  0  0  0
    1.8423   -2.4996   -5.2551 H   0  0  0  0  0  0  0  0  0  0  0  0
    1.1381    3.6053   -3.9538 H   0  0  0  0  0  0  0  0  0  0  0  0
    0.6885    4.0874   -5.6044 H   0  0  0  0  0  0  0  0  0  0  0  0
   -1.2861    4.7198   -4.7502 H   0  0  0  0  0  0  0  0  0  0  0  0
   -1.7854    4.3382   -2.3847 H   0  0  0  0  0  0  0  0  0  0  0  0
   -0.1067    3.6206   -2.3022 H   0  0  0  0  0  0  0  0  0  0  0  0
    0.0972    6.0664   -3.6694 H   0  0  0  0  0  0  0  0  0  0  0  0
   -0.9563    6.4470   -2.2889 H   0  0  0  0  0  0  0  0  0  0  0  0
    1.8410    5.6288   -2.4174 H   0  0  0  0  0  0  0  0  0  0  0  0
    1.8486    7.4288   -1.1315 H   0  0  0  0  0  0  0  0  0  0  0  0
    0.1294    7.3176   -0.7328 H   0  0  0  0  0  0  0  0  0  0  0  0
   -0.4580    7.2785    0.3464 H   0  0  0  0  0  0  0  0  0  0  0  0
   -1.2324    3.6418    2.3617 H   0  0  0  0  0  0  0  0  0  0  0  0
   -1.2915    3.7962    0.5947 H   0  0  0  0  0  0  0  0  0  0  0  0
   -0.4094    1.4417    2.0772 H   0  0  0  0  0  0  0  0  0  0  0  0
    0.9700    2.1551    1.2240 H   0  0  0  0  0  0  0  0  0  0  0  0
   -1.4640    1.1193   -0.0353 H   0  0  0  0  0  0  0  0  0  0  0  0
    0.3787    1.1818   -1.8392 H   0  0  0  0  0  0  0  0  0  0  0  0
    1.4536    1.3397   -0.3973 H   0  0  0  0  0  0  0  0  0  0  0  0
    0.6611   -1.0476   -1.5062 H   0  0  0  0  0  0  0  0  0  0  0  0
    1.1977   -0.9104    0.1793 H   0  0  0  0  0  0  0  0  0  0  0  0
   -1.5041   -0.6682   -1.0137 H   0  0  0  0  0  0  0  0  0  0  0  0
   -0.8333   -2.7236   -1.2016 H   0  0  0  0  0  0  0  0  0  0  0  0
   -0.0594   -2.7095    0.4802 H   0  0  0  0  0  0  0  0  0  0  0  0
   -0.8721   -1.6225    1.6798 H   0  0  0  0  0  0  0  0  0  0  0  0
   -3.9519   -0.0054    0.9997 H   0  0  0  0  0  0  0  0  0  0  0  0
   -5.0692   -0.6869    2.2025 H   0  0  0  0  0  0  0  0  0  0  0  0
   -6.4386    0.0717    0.4392 H   0  0  0  0  0  0  0  0  0  0  0  0
   -6.2438   -1.6835   -0.0573 H   0  0  0  0  0  0  0  0  0  0  0  0
   -5.7272   -0.6423   -1.8956 H   0  0  0  0  0  0  0  0  0  0  0  0
   -4.1857    1.5565   -0.6399 H   0  0  0  0  0  0  0  0  0  0  0  0
   -5.9522    1.6550   -0.9127 H   0  0  0  0  0  0  0  0  0  0  0  0
   -5.3424    0.8797   -3.3856 H   0  0  0  0  0  0  0  0  0  0  0  0
   -4.9423    2.5227   -2.8390 H   0  0  0  0  0  0  0  0  0  0  0  0
   -2.8202    1.1611   -2.0393 H   0  0  0  0  0  0  0  0  0  0  0  0
   -3.9060   -0.5307   -3.7475 H   0  0  0  0  0  0  0  0  0  0  0  0
   -2.1544   -0.4853   -3.3409 H   0  0  0  0  0  0  0  0  0  0  0  0
   -3.1328   -0.2539   -5.8558 H   0  0  0  0  0  0  0  0  0  0  0  0
   -3.2122    1.4416   -5.3617 H   0  0  0  0  0  0  0  0  0  0  0  0
   -0.6698    3.6236   -6.4223 H   0  0  0  0  0  0  0  0  0  0  0  0
    3.4600    6.0719    4.4326 H   0  0  0  0  0  0  0  0  0  0  0  0
    4.7576    6.0607    3.2277 H   0  0  0  0  0  0  0  0  0  0  0  0
    5.1276    3.8820    3.3461 H   0  0  0  0  0  0  0  0  0  0  0  0
    2.4774    3.3353    3.7284 H   0  0  0  0  0  0  0  0  0  0  0  0
    3.0930    3.2664    5.3894 H   0  0  0  0  0  0  0  0  0  0  0  0
    4.5138    1.5115    5.0496 H   0  0  0  0  0  0  0  0  0  0  0  0
    4.8335    1.9279    3.3223 H   0  0  0  0  0  0  0  0  0  0  0  0
    2.1606    1.3378    3.4894 H   0  0  0  0  0  0  0  0  0  0  0  0
    3.7801   -0.3650    5.2487 H   0  0  0  0  0  0  0  0  0  0  0  0
    2.0442   -0.0289    5.1670 H   0  0  0  0  0  0  0  0  0  0  0  0
  1  2  2  0
  2  3  1  0
  3  4  1  0
  4  5  1  0
  5  6  1  0
  6  7  1  0
  7  8  1  0
  8  9  1  0
  9 10  1  0
 10 11  1  0
 11 12  1  0
 11 13  2  0
 13 14  1  0
 14 15  1  0
 15 16  1  0
 16 17  1  0
 17 18  1  0
 18 19  1  0
 19 20  1  0
 20 21  1  0
 21 22  2  0
 21 23  1  0
 23 24  2  0
 24 25  1  0
 25 26  1  0
 26 27  1  0
 27 28  1  0
 28 29  1  0
 29 30  1  0
 30 31  1  0
 31 32  1  0
 32 33  1  0
 33 34  1  0
 33 35  2  0
 35 36  1  0
 36 37  1  0
 37 38  1  0
 38 39  1  0
 39 40  1  0
 40 41  1  0
 41 42  1  0
 42 43  1  0
 43 44  1  0
 44 45  1  0
 45 46  1  0
 45 47  2  0
 47 48  1  0
 48 49  1  0
 49 50  1  0
 50 51  1  0
 51 52  1  0
 52 53  1  0
 53 54  1  0
 54 55  1  0
 55 56  1  0
 56 57  2  0
 57 58  1  0
 57 59  1  0
 47 60  1  0
 35 61  1  0
 61 62  1  0
 62 63  2  0
 62 64  1  0
 64 65  1  0
 65 66  1  0
 66 67  1  0
 67 68  1  0
 68 69  1  0
 69 70  1  0
 70 71  2  0
 70 72  1  0
 60  2  1  0
 72  9  2  0
 72 13  1  0
 56 23  1  0
 59 24  1  0
 61 31  2  0
 60 43  2  0
  3 73  1  0
  3 74  1  0
  4 75  1  0
  5 76  1  0
  5 77  1  0
  6 78  1  0
  6 79  1  0
  7 80  1  0
  8 81  1  0
  8 82  1  0
 10 83  1  0
 14 84  1  0
 14 85  1  0
 15 86  1  0
 15 87  1  0
 16 88  1  0
 17 89  1  0
 17 90  1  0
 18 91  1  0
 18 92  1  0
 19 93  1  0
 20 94  1  0
 20 95  1  0
 25 96  1  0
 25 97  1  0
 26 98  1  0
 27 99  1  0
 27100  1  0
 28101  1  0
 28102  1  0
 29103  1  0
 30104  1  0
 30105  1  0
 32106  1  0
 36107  1  0
 36108  1  0
 37109  1  0
 37110  1  0
 38111  1  0
 39112  1  0
 39113  1  0
 40114  1  0
 40115  1  0
 41116  1  0
 42117  1  0
 42118  1  0
 44119  1  0
 48120  1  0
 48121  1  0
 49122  1  0
 49123  1  0
 50124  1  0
 51125  1  0
 51126  1  0
 52127  1  0
 52128  1  0
 53129  1  0
 54130  1  0
 54131  1  0
 55132  1  0
 55133  1  0
 59134  1  0
 64135  1  0
 64136  1  0
 65137  1  0
 66138  1  0
 66139  1  0
 67140  1  0
 67141  1  0
 68142  1  0
 69143  1  0
 69144  1  0
M  END
