
     RDKit          3D

159165  0  0  0  0  0  0  0  0999 V2000
   -6.3564    0.1926   -1.7648 O   0  0  0  0  0  0  0  0  0  0  0  0
   -6.2629   -0.2166   -2.2713 S   0  0  0  0  0  0  0  0  0  0  0  0
   -6.7567    0.7292   -3.3516 O   0  0  0  0  0  0  0  0  0  0  0  0
   -6.8178   -1.9112   -2.6281 C   0  0  0  0  0  0  0  0  0  0  0  0
   -6.1290   -2.9795   -3.2717 C   0  0  0  0  0  0  0  0  0  0  0  0
   -5.7171   -4.0137   -2.4198 C   0  0  0  0  0  0  0  0  0  0  0  0
   -6.0417   -3.8332   -1.0361 C   0  0  0  0  0  0  0  0  0  0  0  0
   -7.4595   -3.6409   -1.0789 C   0  0  0  0  0  0  0  0  0  0  0  0
   -7.8472   -2.5558   -1.8770 C   0  0  0  0  0  0  0  0  0  0  0  0
   -5.0930   -3.5197    0.1237 C   0  0  0  0  0  0  0  0  0  0  0  0
   -4.7972   -4.6590    0.9433 N   0  0  0  0  0  0  0  0  0  0  0  0
   -3.4782   -4.5705    1.5116 C   0  0  0  0  0  0  0  0  0  0  0  0
   -3.4314   -3.8454    2.8269 C   0  0  0  0  0  0  0  0  0  0  0  0
   -2.1402   -3.2207    3.0034 N   0  0  0  0  0  0  0  0  0  0  0  0
   -1.9510   -2.7203    4.3458 C   0  0  0  0  0  0  0  0  0  0  0  0
   -0.5085   -2.4674    4.6645 C   0  0  0  0  0  0  0  0  0  0  0  0
    0.4229   -3.3453    3.8876 C   0  0  0  0  0  0  0  0  0  0  0  0
    1.7880   -2.9173    4.0384 N   0  0  0  0  0  0  0  0  0  0  0  0
    2.7168   -3.9979    4.2476 C   0  0  0  0  0  0  0  0  0  0  0  0
    3.4302   -4.3861    2.9558 C   0  0  0  0  0  0  0  0  0  0  0  0
    4.0479   -3.1899    2.3866 N   0  0  0  0  0  0  0  0  0  0  0  0
    5.3047   -3.4537    1.7507 C   0  0  0  0  0  0  0  0  0  0  0  0
    5.2854   -4.4674    0.6093 C   0  0  0  0  0  0  0  0  0  0  0  0
    5.8676   -4.3232   -0.6916 C   0  0  0  0  0  0  0  0  0  0  0  0
    4.9556   -4.1587   -1.7438 C   0  0  0  0  0  0  0  0  0  0  0  0
    3.5829   -4.1811   -1.3515 C   0  0  0  0  0  0  0  0  0  0  0  0
    3.4734   -5.4130   -0.6379 C   0  0  0  0  0  0  0  0  0  0  0  0
    4.3859   -5.5636    0.4179 C   0  0  0  0  0  0  0  0  0  0  0  0
    2.4494   -2.7720   -1.2847 S   0  0  0  0  0  0  0  0  0  0  0  0
    3.0914   -1.4396   -1.1634 O   0  0  0  0  0  0  0  0  0  0  0  0
    1.6115   -2.6955   -0.0533 O   0  0  0  0  0  0  0  0  0  0  0  0
    1.3463   -2.7234   -2.6525 C   0  0  0  0  0  0  0  0  0  0  0  0
   -0.1091   -2.5887   -2.2160 C   0  0  0  0  0  0  0  0  0  0  0  0
   -0.3659   -1.3896   -1.4963 N   0  0  0  0  0  0  0  0  0  0  0  0
   -1.4623   -1.4919   -0.5902 C   0  0  0  0  0  0  0  0  0  0  0  0
   -1.8505   -0.2173    0.0766 C   0  0  0  0  0  0  0  0  0  0  0  0
   -2.7003    0.6402   -0.6908 N   0  0  0  0  0  0  0  0  0  0  0  0
   -4.0898    0.2844   -0.6871 C   0  0  0  0  0  0  0  0  0  0  0  0
   -4.5097   -0.0093   -2.1044 C   0  0  0  0  0  0  0  0  0  0  0  0
   -4.1043    1.2361   -2.8887 C   0  0  0  0  0  0  0  0  0  0  0  0
   -2.7438    1.1533   -3.4907 C   0  0  0  0  0  0  0  0  0  0  0  0
   -1.9567    2.3462   -3.1833 N   0  0  0  0  0  0  0  0  0  0  0  0
   -0.5672    2.1958   -3.5053 C   0  0  0  0  0  0  0  0  0  0  0  0
    0.3497    2.2086   -2.3232 C   0  0  0  0  0  0  0  0  0  0  0  0
    1.2422    3.3368   -2.2815 N   0  0  0  0  0  0  0  0  0  0  0  0
    2.4512    3.0817   -1.5230 C   0  0  0  0  0  0  0  0  0  0  0  0
    3.7015    3.2099   -2.3262 C   0  0  0  0  0  0  0  0  0  0  0  0
    3.4089    2.8458   -3.7809 C   0  0  0  0  0  0  0  0  0  0  0  0
    3.7866    1.4907   -4.0868 N   0  0  0  0  0  0  0  0  0  0  0  0
    2.9863    0.8589   -5.0910 C   0  0  0  0  0  0  0  0  0  0  0  0
    3.2077   -0.6292   -5.0001 C   0  0  0  0  0  0  0  0  0  0  0  0
    2.9596   -1.1448   -3.6557 N   0  0  0  0  0  0  0  0  0  0  0  0
    1.6102   -1.6285   -3.6324 C   0  0  0  0  0  0  0  0  0  0  0  0
    4.6293    4.6552   -2.1346 S   0  0  0  0  0  0  0  0  0  0  0  0
    5.8083    4.3623   -3.0450 O   0  0  0  0  0  0  0  0  0  0  0  0
    5.0306    4.5510   -0.6789 O   0  0  0  0  0  0  0  0  0  0  0  0
    3.8232    6.2055   -2.5789 C   0  0  0  0  0  0  0  0  0  0  0  0
    4.1838    7.4830   -2.0542 C   0  0  0  0  0  0  0  0  0  0  0  0
    3.2748    8.0902   -1.1717 C   0  0  0  0  0  0  0  0  0  0  0  0
    2.1192    7.2902   -0.8894 C   0  0  0  0  0  0  0  0  0  0  0  0
    1.6028    7.0569   -2.2056 C   0  0  0  0  0  0  0  0  0  0  0  0
    2.5071    6.4467   -3.0894 C   0  0  0  0  0  0  0  0  0  0  0  0
    1.7874    6.5516    0.4135 C   0  0  0  0  0  0  0  0  0  0  0  0
    0.8926    7.2809    1.2620 N   0  0  0  0  0  0  0  0  0  0  0  0
    0.2528    6.3659    2.1658 C   0  0  0  0  0  0  0  0  0  0  0  0
    1.1787    5.3338    2.7479 C   0  0  0  0  0  0  0  0  0  0  0  0
    0.7125    4.8269    4.0119 N   0  0  0  0  0  0  0  0  0  0  0  0
    0.5781    3.3981    4.0612 C   0  0  0  0  0  0  0  0  0  0  0  0
   -0.7262    2.9490    4.7318 C   0  0  0  0  0  0  0  0  0  0  0  0
   -1.9272    2.4892    4.0987 C   0  0  0  0  0  0  0  0  0  0  0  0
   -2.1821    1.1158    4.2356 C   0  0  0  0  0  0  0  0  0  0  0  0
   -1.2276    0.3846    5.0072 C   0  0  0  0  0  0  0  0  0  0  0  0
   -1.1685    1.1300    6.2247 C   0  0  0  0  0  0  0  0  0  0  0  0
   -0.9102    2.5022    6.0808 C   0  0  0  0  0  0  0  0  0  0  0  0
   -0.0057   -0.7988    4.3928 S   0  0  0  0  0  0  0  0  0  0  0  0
    1.3651   -0.6460    4.9486 O   0  0  0  0  0  0  0  0  0  0  0  0
    0.3486   -0.6638    2.9563 O   0  0  0  0  0  0  0  0  0  0  0  0
   -6.0061   -3.1433   -4.3451 H   0  0  0  0  0  0  0  0  0  0  0  0
   -5.2849   -4.8930   -2.9047 H   0  0  0  0  0  0  0  0  0  0  0  0
   -8.2441   -4.2668   -0.6437 H   0  0  0  0  0  0  0  0  0  0  0  0
   -8.9292   -2.4469   -1.9917 H   0  0  0  0  0  0  0  0  0  0  0  0
   -5.4361   -2.7122    0.8098 H   0  0  0  0  0  0  0  0  0  0  0  0
   -4.1299   -3.0740   -0.1483 H   0  0  0  0  0  0  0  0  0  0  0  0
   -5.5321   -4.8936    1.6319 H   0  0  0  0  0  0  0  0  0  0  0  0
   -2.7862   -4.1749    0.7541 H   0  0  0  0  0  0  0  0  0  0  0  0
   -3.1482   -5.6209    1.7141 H   0  0  0  0  0  0  0  0  0  0  0  0
   -4.2114   -3.0509    2.7877 H   0  0  0  0  0  0  0  0  0  0  0  0
   -3.6802   -4.4981    3.6766 H   0  0  0  0  0  0  0  0  0  0  0  0
   -2.1360   -2.3770    2.3777 H   0  0  0  0  0  0  0  0  0  0  0  0
   -2.4233   -3.4451    5.0514 H   0  0  0  0  0  0  0  0  0  0  0  0
   -2.5179   -1.7656    4.4854 H   0  0  0  0  0  0  0  0  0  0  0  0
   -0.3758   -2.6741    5.7547 H   0  0  0  0  0  0  0  0  0  0  0  0
    0.1451   -3.3693    2.8245 H   0  0  0  0  0  0  0  0  0  0  0  0
    0.3488   -4.3701    4.3234 H   0  0  0  0  0  0  0  0  0  0  0  0
    2.1361   -2.3393    3.2532 H   0  0  0  0  0  0  0  0  0  0  0  0
    3.4187   -3.8145    5.0756 H   0  0  0  0  0  0  0  0  0  0  0  0
    2.1176   -4.8949    4.5450 H   0  0  0  0  0  0  0  0  0  0  0  0
    4.2000   -5.1328    3.1963 H   0  0  0  0  0  0  0  0  0  0  0  0
    2.6177   -4.7811    2.2998 H   0  0  0  0  0  0  0  0  0  0  0  0
    4.2720   -2.5930    3.1981 H   0  0  0  0  0  0  0  0  0  0  0  0
    6.0256   -3.7148    2.5458 H   0  0  0  0  0  0  0  0  0  0  0  0
    5.5475   -2.4200    1.4756 H   0  0  0  0  0  0  0  0  0  0  0  0
    6.9168   -4.4434   -0.9758 H   0  0  0  0  0  0  0  0  0  0  0  0
    5.3628   -4.1694   -2.7585 H   0  0  0  0  0  0  0  0  0  0  0  0
    2.8622   -6.2834   -0.8921 H   0  0  0  0  0  0  0  0  0  0  0  0
    4.4044   -6.5457    0.8997 H   0  0  0  0  0  0  0  0  0  0  0  0
    1.4056   -3.7229   -3.1539 H   0  0  0  0  0  0  0  0  0  0  0  0
   -0.4405   -3.4438   -1.6080 H   0  0  0  0  0  0  0  0  0  0  0  0
   -0.7200   -2.5768   -3.1447 H   0  0  0  0  0  0  0  0  0  0  0  0
    0.4472   -0.8536   -1.1772 H   0  0  0  0  0  0  0  0  0  0  0  0
   -1.2342   -2.2605    0.1619 H   0  0  0  0  0  0  0  0  0  0  0  0
   -2.3316   -1.8799   -1.1748 H   0  0  0  0  0  0  0  0  0  0  0  0
   -2.3461   -0.3883    1.0593 H   0  0  0  0  0  0  0  0  0  0  0  0
   -0.9255    0.3635    0.3240 H   0  0  0  0  0  0  0  0  0  0  0  0
   -2.6356    1.6089   -0.2780 H   0  0  0  0  0  0  0  0  0  0  0  0
   -4.7513    1.1168   -0.3363 H   0  0  0  0  0  0  0  0  0  0  0  0
   -4.2290   -0.5421    0.0115 H   0  0  0  0  0  0  0  0  0  0  0  0
   -3.9807   -0.8505   -2.5673 H   0  0  0  0  0  0  0  0  0  0  0  0
   -4.1425    2.1451   -2.2391 H   0  0  0  0  0  0  0  0  0  0  0  0
   -4.8776    1.4175   -3.6775 H   0  0  0  0  0  0  0  0  0  0  0  0
   -2.8422    1.1595   -4.6064 H   0  0  0  0  0  0  0  0  0  0  0  0
   -2.2245    0.2222   -3.2391 H   0  0  0  0  0  0  0  0  0  0  0  0
   -2.4068    3.1609   -3.6518 H   0  0  0  0  0  0  0  0  0  0  0  0
   -0.2987    2.9863   -4.2510 H   0  0  0  0  0  0  0  0  0  0  0  0
   -0.4656    1.2315   -4.0647 H   0  0  0  0  0  0  0  0  0  0  0  0
   -0.1673    2.1646   -1.3460 H   0  0  0  0  0  0  0  0  0  0  0  0
    0.9988    1.2966   -2.3522 H   0  0  0  0  0  0  0  0  0  0  0  0
    0.7298    4.0917   -1.7523 H   0  0  0  0  0  0  0  0  0  0  0  0
    2.5548    3.7068   -0.6277 H   0  0  0  0  0  0  0  0  0  0  0  0
    2.3354    2.0354   -1.1368 H   0  0  0  0  0  0  0  0  0  0  0  0
    4.3797    2.3870   -1.9831 H   0  0  0  0  0  0  0  0  0  0  0  0
    4.0849    3.5048   -4.3830 H   0  0  0  0  0  0  0  0  0  0  0  0
    2.3858    3.1085   -4.0813 H   0  0  0  0  0  0  0  0  0  0  0  0
    4.7882    1.3728   -4.3117 H   0  0  0  0  0  0  0  0  0  0  0  0
    1.9288    1.1524   -5.0952 H   0  0  0  0  0  0  0  0  0  0  0  0
    3.3979    1.1731   -6.0836 H   0  0  0  0  0  0  0  0  0  0  0  0
    2.5147   -1.1159   -5.7315 H   0  0  0  0  0  0  0  0  0  0  0  0
    4.2254   -0.8449   -5.3555 H   0  0  0  0  0  0  0  0  0  0  0  0
    3.5944   -1.9794   -3.5619 H   0  0  0  0  0  0  0  0  0  0  0  0
    0.8719   -0.7961   -3.5085 H   0  0  0  0  0  0  0  0  0  0  0  0
    1.3945   -2.0405   -4.6512 H   0  0  0  0  0  0  0  0  0  0  0  0
    5.0013    8.1371   -2.3732 H   0  0  0  0  0  0  0  0  0  0  0  0
    3.4707    9.1201   -0.8570 H   0  0  0  0  0  0  0  0  0  0  0  0
    0.6254    7.3352   -2.6072 H   0  0  0  0  0  0  0  0  0  0  0  0
    2.1846    6.3618   -4.1322 H   0  0  0  0  0  0  0  0  0  0  0  0
    1.3559    5.5497    0.2945 H   0  0  0  0  0  0  0  0  0  0  0  0
    2.6624    6.2624    1.0253 H   0  0  0  0  0  0  0  0  0  0  0  0
    1.4148    7.9865    1.8277 H   0  0  0  0  0  0  0  0  0  0  0  0
   -0.1234    6.9765    3.0255 H   0  0  0  0  0  0  0  0  0  0  0  0
   -0.6194    5.8762    1.7092 H   0  0  0  0  0  0  0  0  0  0  0  0
    2.1946    5.7625    2.9427 H   0  0  0  0  0  0  0  0  0  0  0  0
    1.2260    4.4801    2.0294 H   0  0  0  0  0  0  0  0  0  0  0  0
   -0.0796    5.3514    4.4190 H   0  0  0  0  0  0  0  0  0  0  0  0
    0.7438    3.0271    3.0415 H   0  0  0  0  0  0  0  0  0  0  0  0
    1.5037    3.0057    4.5133 H   0  0  0  0  0  0  0  0  0  0  0  0
   -2.7053    3.0899    3.6184 H   0  0  0  0  0  0  0  0  0  0  0  0
   -3.1502    0.7643    3.8664 H   0  0  0  0  0  0  0  0  0  0  0  0
   -1.4354    0.7875    7.2291 H   0  0  0  0  0  0  0  0  0  0  0  0
   -0.9785    3.1093    6.9883 H   0  0  0  0  0  0  0  0  0  0  0  0
  1  2  2  0
  2  3  2  0
  2  4  1  0
  4  5  2  0
  5  6  1  0
  6  7  2  0
  7  8  1  0
  8  9  2  0
  7 10  1  0
 10 11  1  0
 11 12  1  0
 12 13  1  0
 13 14  1  0
 14 15  1  0
 15 16  1  0
 16 17  1  0
 17 18  1  0
 18 19  1  0
 19 20  1  0
 20 21  1  0
 21 22  1  0
 22 23  1  0
 23 24  2  0
 24 25  1  0
 25 26  2  0
 26 27  1  0
 27 28  2  0
 26 29  1  0
 29 30  2  0
 29 31  2  0
 29 32  1  0
 32 33  1  0
 33 34  1  0
 34 35  1  0
 35 36  1  0
 36 37  1  0
 37 38  1  0
 38 39  1  0
 39 40  1  0
 40 41  1  0
 41 42  1  0
 42 43  1  0
 43 44  1  0
 44 45  1  0
 45 46  1  0
 46 47  1  0
 47 48  1  0
 48 49  1  0
 49 50  1  0
 50 51  1  0
 51 52  1  0
 52 53  1  0
 47 54  1  0
 54 55  2  0
 54 56  2  0
 54 57  1  0
 57 58  2  0
 58 59  1  0
 59 60  2  0
 60 61  1  0
 61 62  2  0
 60 63  1  0
 63 64  1  0
 64 65  1  0
 65 66  1  0
 66 67  1  0
 67 68  1  0
 68 69  1  0
 69 70  2  0
 70 71  1  0
 71 72  2  0
 72 73  1  0
 73 74  2  0
 72 75  1  0
 75 76  2  0
 75 77  2  0
 39  2  1  0
 62 57  1  0
 74 69  1  0
  9  4  1  0
 75 16  1  0
 28 23  1  0
 53 32  1  0
  5 78  1  0
  6 79  1  0
  8 80  1  0
  9 81  1  0
 10 82  1  0
 10 83  1  0
 11 84  1  0
 12 85  1  0
 12 86  1  0
 13 87  1  0
 13 88  1  0
 14 89  1  0
 15 90  1  0
 15 91  1  0
 16 92  1  0
 17 93  1  0
 17 94  1  0
 18 95  1  0
 19 96  1  0
 19 97  1  0
 20 98  1  0
 20 99  1  0
 21100  1  0
 22101  1  0
 22102  1  0
 24103  1  0
 25104  1  0
 27105  1  0
 28106  1  0
 32107  1  0
 33108  1  0
 33109  1  0
 34110  1  0
 35111  1  0
 35112  1  0
 36113  1  0
 36114  1  0
 37115  1  0
 38116  1  0
 38117  1  0
 39118  1  0
 40119  1  0
 40120  1  0
 41121  1  0
 41122  1  0
 42123  1  0
 43124  1  0
 43125  1  0
 44126  1  0
 44127  1  0
 45128  1  0
 46129  1  0
 46130  1  0
 47131  1  0
 48132  1  0
 48133  1  0
 49134  1  0
 50135  1  0
 50136  1  0
 51137  1  0
 51138  1  0
 52139  1  0
 53140  1  0
 53141  1  0
 58142  1  0
 59143  1  0
 61144  1  0
 62145  1  0
 63146  1  0
 63147  1  0
 64148  1  0
 65149  1  0
 65150  1  0
 66151  1  0
 66152  1  0
 67153  1  0
 68154  1  0
 68155  1  0
 70156  1  0
 71157  1  0
 73158  1  0
 74159  1  0
M  END
