
     RDKit          3D

139145  0  0  0  0  0  0  0  0999 V2000
    1.8437   -4.3516   -2.6155 C   0  0  0  0  0  0  0  0  0  0  0  0
    0.9478   -5.4019   -2.8104 C   0  0  0  0  0  0  0  0  0  0  0  0
    1.4885   -5.5865   -1.4626 C   0  0  0  0  0  0  0  0  0  0  0  0
    0.5251   -6.4452   -0.6581 C   0  0  0  0  0  0  0  0  0  0  0  0
    0.8868   -6.4723    0.7573 N   0  0  0  0  0  0  0  0  0  0  0  0
   -0.3782   -6.5374    1.4870 C   0  0  0  0  0  0  0  0  0  0  0  0
   -0.1846   -6.6129    2.9719 C   0  0  0  0  0  0  0  0  0  0  0  0
   -0.6107   -5.4360    3.6774 N   0  0  0  0  0  0  0  0  0  0  0  0
   -2.0022   -5.1305    3.5420 C   0  0  0  0  0  0  0  0  0  0  0  0
   -2.2768   -3.6264    3.4813 C   0  0  0  0  0  0  0  0  0  0  0  0
   -3.1451   -3.3857    2.3818 C   0  0  0  0  0  0  0  0  0  0  0  0
   -2.0902   -2.5053    2.1690 C   0  0  0  0  0  0  0  0  0  0  0  0
   -1.9193   -2.2213    0.8127 C   0  0  0  0  0  0  0  0  0  0  0  0
   -0.6549   -1.8515    1.4499 C   0  0  0  0  0  0  0  0  0  0  0  0
    0.3716   -2.8451    1.3024 N   0  0  0  0  0  0  0  0  0  0  0  0
    1.6939   -2.3807    1.5880 C   0  0  0  0  0  0  0  0  0  0  0  0
    1.9101   -2.3286    3.0693 C   0  0  0  0  0  0  0  0  0  0  0  0
    3.2924   -2.2163    3.4575 N   0  0  0  0  0  0  0  0  0  0  0  0
    3.5854   -0.9301    4.0872 C   0  0  0  0  0  0  0  0  0  0  0  0
    3.7170    0.1687    3.0376 C   0  0  0  0  0  0  0  0  0  0  0  0
    2.4596    0.9139    3.0565 C   0  0  0  0  0  0  0  0  0  0  0  0
    3.2094    1.4342    2.0019 C   0  0  0  0  0  0  0  0  0  0  0  0
    2.4200    2.0033    1.0038 C   0  0  0  0  0  0  0  0  0  0  0  0
    3.7424    1.8542    0.3898 C   0  0  0  0  0  0  0  0  0  0  0  0
    3.6480    0.8418   -0.6607 N   0  0  0  0  0  0  0  0  0  0  0  0
    4.3020    1.2442   -1.8768 C   0  0  0  0  0  0  0  0  0  0  0  0
    4.8031   -0.0048   -2.5871 C   0  0  0  0  0  0  0  0  0  0  0  0
    3.6713   -0.8432   -2.9586 N   0  0  0  0  0  0  0  0  0  0  0  0
    4.0777   -2.1954   -3.2564 C   0  0  0  0  0  0  0  0  0  0  0  0
    3.1140   -3.2253   -2.6785 C   0  0  0  0  0  0  0  0  0  0  0  0
    2.3433   -3.8293   -3.8079 C   0  0  0  0  0  0  0  0  0  0  0  0
    1.4623   -3.8881   -4.8424 N   0  0  0  0  0  0  0  0  0  0  0  0
    0.1326   -4.0254   -4.4717 C   0  0  0  0  0  0  0  0  0  0  0  0
   -0.9472   -2.9679   -4.3897 C   0  0  0  0  0  0  0  0  0  0  0  0
   -0.8436   -2.1415   -3.2171 N   0  0  0  0  0  0  0  0  0  0  0  0
   -0.5602   -0.7809   -3.6694 C   0  0  0  0  0  0  0  0  0  0  0  0
   -0.2630    0.0727   -2.4592 C   0  0  0  0  0  0  0  0  0  0  0  0
   -1.0559    1.2861   -2.5495 N   0  0  0  0  0  0  0  0  0  0  0  0
   -0.2839    2.3211   -3.2389 C   0  0  0  0  0  0  0  0  0  0  0  0
   -0.5326    3.7260   -2.8570 C   0  0  0  0  0  0  0  0  0  0  0  0
   -1.2093    4.8722   -3.3560 C   0  0  0  0  0  0  0  0  0  0  0  0
   -2.3617    5.0806   -2.5651 C   0  0  0  0  0  0  0  0  0  0  0  0
   -3.8126    4.8633   -2.7214 C   0  0  0  0  0  0  0  0  0  0  0  0
   -4.2837    3.4229   -2.5472 C   0  0  0  0  0  0  0  0  0  0  0  0
   -4.1260    2.9557   -1.1908 N   0  0  0  0  0  0  0  0  0  0  0  0
   -4.7683    1.6432   -1.1366 C   0  0  0  0  0  0  0  0  0  0  0  0
   -5.2013    1.3739    0.2765 C   0  0  0  0  0  0  0  0  0  0  0  0
   -4.3978    0.3805    0.9440 N   0  0  0  0  0  0  0  0  0  0  0  0
   -5.0776   -0.8765    1.0144 C   0  0  0  0  0  0  0  0  0  0  0  0
   -4.1997   -2.0891    0.8253 C   0  0  0  0  0  0  0  0  0  0  0  0
   -4.1483   -3.2977    1.5031 N   0  0  0  0  0  0  0  0  0  0  0  0
   -3.0574   -2.2830    0.0642 N   0  0  0  0  0  0  0  0  0  0  0  0
   -1.9218    5.0415   -1.2417 N   0  0  0  0  0  0  0  0  0  0  0  0
   -0.5998    5.1963   -0.9642 C   0  0  0  0  0  0  0  0  0  0  0  0
    0.2884    6.3943   -0.8318 C   0  0  0  0  0  0  0  0  0  0  0  0
    1.3493    6.1567    0.1535 N   0  0  0  0  0  0  0  0  0  0  0  0
    0.7695    6.2042    1.4902 C   0  0  0  0  0  0  0  0  0  0  0  0
    1.8259    6.3201    2.5493 C   0  0  0  0  0  0  0  0  0  0  0  0
    2.3940    5.0300    2.9257 N   0  0  0  0  0  0  0  0  0  0  0  0
    1.4140    4.1587    3.4981 C   0  0  0  0  0  0  0  0  0  0  0  0
    1.2514    2.8271    2.8063 C   0  0  0  0  0  0  0  0  0  0  0  0
    1.2617    1.5191    3.2711 N   0  0  0  0  0  0  0  0  0  0  0  0
    1.2443    2.5186    1.4551 N   0  0  0  0  0  0  0  0  0  0  0  0
   -0.3597    3.9718   -1.4993 N   0  0  0  0  0  0  0  0  0  0  0  0
    0.2173   -5.3078   -3.9514 N   0  0  0  0  0  0  0  0  0  0  0  0
    2.5890   -4.4990   -1.8296 H   0  0  0  0  0  0  0  0  0  0  0  0
    1.7102   -4.6630   -0.9168 H   0  0  0  0  0  0  0  0  0  0  0  0
    2.4318   -6.1673   -1.5508 H   0  0  0  0  0  0  0  0  0  0  0  0
   -0.5009   -6.0553   -0.7926 H   0  0  0  0  0  0  0  0  0  0  0  0
    0.5467   -7.5042   -1.0071 H   0  0  0  0  0  0  0  0  0  0  0  0
    1.5125   -7.2637    0.9871 H   0  0  0  0  0  0  0  0  0  0  0  0
   -0.9254   -7.4555    1.1806 H   0  0  0  0  0  0  0  0  0  0  0  0
   -0.9360   -5.6217    1.1639 H   0  0  0  0  0  0  0  0  0  0  0  0
   -0.7140   -7.4835    3.4329 H   0  0  0  0  0  0  0  0  0  0  0  0
    0.8970   -6.7515    3.1948 H   0  0  0  0  0  0  0  0  0  0  0  0
   -0.2525   -5.4498    4.6446 H   0  0  0  0  0  0  0  0  0  0  0  0
   -2.5353   -5.6266    4.3698 H   0  0  0  0  0  0  0  0  0  0  0  0
   -2.3626   -5.6417    2.6133 H   0  0  0  0  0  0  0  0  0  0  0  0
   -2.8734   -3.4316    4.4196 H   0  0  0  0  0  0  0  0  0  0  0  0
   -1.3721   -3.1281    3.6570 H   0  0  0  0  0  0  0  0  0  0  0  0
   -1.1773   -2.7549    2.6826 H   0  0  0  0  0  0  0  0  0  0  0  0
   -0.2500   -1.0205    0.8053 H   0  0  0  0  0  0  0  0  0  0  0  0
   -0.7133   -1.3409    2.4083 H   0  0  0  0  0  0  0  0  0  0  0  0
    0.2478   -3.2865    0.3773 H   0  0  0  0  0  0  0  0  0  0  0  0
    1.8546   -1.4315    1.0636 H   0  0  0  0  0  0  0  0  0  0  0  0
    2.4163   -3.1074    1.1717 H   0  0  0  0  0  0  0  0  0  0  0  0
    1.5514   -3.3055    3.4828 H   0  0  0  0  0  0  0  0  0  0  0  0
    1.2602   -1.5621    3.5611 H   0  0  0  0  0  0  0  0  0  0  0  0
    3.9470   -2.3447    2.6431 H   0  0  0  0  0  0  0  0  0  0  0  0
    4.4760   -0.9895    4.7295 H   0  0  0  0  0  0  0  0  0  0  0  0
    2.7230   -0.7397    4.7740 H   0  0  0  0  0  0  0  0  0  0  0  0
    4.6143    0.7526    3.2806 H   0  0  0  0  0  0  0  0  0  0  0  0
    3.8902   -0.3627    2.0885 H   0  0  0  0  0  0  0  0  0  0  0  0
    4.0780    0.8784    1.6396 H   0  0  0  0  0  0  0  0  0  0  0  0
    4.0062    2.7914   -0.1690 H   0  0  0  0  0  0  0  0  0  0  0  0
    4.5737    1.6937    1.0759 H   0  0  0  0  0  0  0  0  0  0  0  0
    4.1733    0.0068   -0.2981 H   0  0  0  0  0  0  0  0  0  0  0  0
    5.1362    1.9454   -1.7322 H   0  0  0  0  0  0  0  0  0  0  0  0
    3.5724    1.7218   -2.5587 H   0  0  0  0  0  0  0  0  0  0  0  0
    5.3812   -0.5743   -1.8264 H   0  0  0  0  0  0  0  0  0  0  0  0
    5.4159    0.2454   -3.4683 H   0  0  0  0  0  0  0  0  0  0  0  0
    2.9990   -0.8545   -2.1590 H   0  0  0  0  0  0  0  0  0  0  0  0
    5.0808   -2.4287   -2.8718 H   0  0  0  0  0  0  0  0  0  0  0  0
    4.1025   -2.2824   -4.3710 H   0  0  0  0  0  0  0  0  0  0  0  0
    2.4513   -2.6528   -1.9866 H   0  0  0  0  0  0  0  0  0  0  0  0
    3.6483   -4.0518   -2.1904 H   0  0  0  0  0  0  0  0  0  0  0  0
   -1.0252   -2.3744   -5.3373 H   0  0  0  0  0  0  0  0  0  0  0  0
   -1.9716   -3.4086   -4.3563 H   0  0  0  0  0  0  0  0  0  0  0  0
   -1.7213   -2.0749   -2.6637 H   0  0  0  0  0  0  0  0  0  0  0  0
   -1.4535   -0.4219   -4.2319 H   0  0  0  0  0  0  0  0  0  0  0  0
    0.3182   -0.8175   -4.3499 H   0  0  0  0  0  0  0  0  0  0  0  0
    0.7991    0.3476   -2.3988 H   0  0  0  0  0  0  0  0  0  0  0  0
   -0.5457   -0.4702   -1.5270 H   0  0  0  0  0  0  0  0  0  0  0  0
   -1.1510    1.6364   -1.5596 H   0  0  0  0  0  0  0  0  0  0  0  0
    0.7978    2.0332   -3.3339 H   0  0  0  0  0  0  0  0  0  0  0  0
   -0.6113    2.0364   -4.2779 H   0  0  0  0  0  0  0  0  0  0  0  0
   -0.8270    5.5344   -4.1405 H   0  0  0  0  0  0  0  0  0  0  0  0
   -4.4763    5.5905   -2.1869 H   0  0  0  0  0  0  0  0  0  0  0  0
   -4.2299    5.0681   -3.7476 H   0  0  0  0  0  0  0  0  0  0  0  0
   -5.3585    3.4177   -2.7630 H   0  0  0  0  0  0  0  0  0  0  0  0
   -3.7288    2.8208   -3.2812 H   0  0  0  0  0  0  0  0  0  0  0  0
   -3.1457    2.7943   -0.9070 H   0  0  0  0  0  0  0  0  0  0  0  0
   -5.6131    1.5985   -1.8689 H   0  0  0  0  0  0  0  0  0  0  0  0
   -4.0425    0.8354   -1.4073 H   0  0  0  0  0  0  0  0  0  0  0  0
   -5.1644    2.3066    0.8589 H   0  0  0  0  0  0  0  0  0  0  0  0
   -6.2552    1.0156    0.2497 H   0  0  0  0  0  0  0  0  0  0  0  0
   -4.0343    0.7052    1.8583 H   0  0  0  0  0  0  0  0  0  0  0  0
   -5.5903   -0.8297    1.9802 H   0  0  0  0  0  0  0  0  0  0  0  0
   -5.8994   -0.8545    0.2524 H   0  0  0  0  0  0  0  0  0  0  0  0
    0.6717    6.8163   -1.7677 H   0  0  0  0  0  0  0  0  0  0  0  0
   -0.2248    7.2642   -0.3451 H   0  0  0  0  0  0  0  0  0  0  0  0
    1.9973    6.9523    0.0211 H   0  0  0  0  0  0  0  0  0  0  0  0
    0.1729    7.1501    1.5190 H   0  0  0  0  0  0  0  0  0  0  0  0
    0.1056    5.3367    1.6032 H   0  0  0  0  0  0  0  0  0  0  0  0
    1.3497    6.8229    3.4275 H   0  0  0  0  0  0  0  0  0  0  0  0
    2.6366    6.9684    2.1910 H   0  0  0  0  0  0  0  0  0  0  0  0
    3.2098    5.2360    3.5255 H   0  0  0  0  0  0  0  0  0  0  0  0
    1.6936    4.0870    4.5538 H   0  0  0  0  0  0  0  0  0  0  0  0
    0.4454    4.7247    3.5192 H   0  0  0  0  0  0  0  0  0  0  0  0
  1  2  2  0
  2  3  1  0
  3  4  1  0
  4  5  1  0
  5  6  1  0
  6  7  1  0
  7  8  1  0
  8  9  1  0
  9 10  1  0
 10 11  1  0
 11 12  2  0
 12 13  1  0
 13 14  1  0
 14 15  1  0
 15 16  1  0
 16 17  1  0
 17 18  1  0
 18 19  1  0
 19 20  1  0
 20 21  1  0
 21 22  2  0
 22 23  1  0
 23 24  1  0
 24 25  1  0
 25 26  1  0
 26 27  1  0
 27 28  1  0
 28 29  1  0
 29 30  1  0
 30 31  1  0
 31 32  2  0
 32 33  1  0
 33 34  1  0
 34 35  1  0
 35 36  1  0
 36 37  1  0
 37 38  1  0
 38 39  1  0
 39 40  1  0
 40 41  1  0
 41 42  2  0
 42 43  1  0
 43 44  1  0
 44 45  1  0
 45 46  1  0
 46 47  1  0
 47 48  1  0
 48 49  1  0
 49 50  1  0
 50 51  2  0
 50 52  1  0
 42 53  1  0
 53 54  2  0
 54 55  1  0
 55 56  1  0
 56 57  1  0
 57 58  1  0
 58 59  1  0
 59 60  1  0
 60 61  1  0
 61 62  2  0
 61 63  1  0
 54 64  1  0
 33 65  2  0
 31  1  1  0
 64 40  2  0
 65  2  1  0
 51 11  1  0
 52 13  2  0
 62 21  1  0
 63 23  2  0
  1 66  1  0
  3 67  1  0
  3 68  1  0
  4 69  1  0
  4 70  1  0
  5 71  1  0
  6 72  1  0
  6 73  1  0
  7 74  1  0
  7 75  1  0
  8 76  1  0
  9 77  1  0
  9 78  1  0
 10 79  1  0
 10 80  1  0
 12 81  1  0
 14 82  1  0
 14 83  1  0
 15 84  1  0
 16 85  1  0
 16 86  1  0
 17 87  1  0
 17 88  1  0
 18 89  1  0
 19 90  1  0
 19 91  1  0
 20 92  1  0
 20 93  1  0
 22 94  1  0
 24 95  1  0
 24 96  1  0
 25 97  1  0
 26 98  1  0
 26 99  1  0
 27100  1  0
 27101  1  0
 28102  1  0
 29103  1  0
 29104  1  0
 30105  1  0
 30106  1  0
 34107  1  0
 34108  1  0
 35109  1  0
 36110  1  0
 36111  1  0
 37112  1  0
 37113  1  0
 38114  1  0
 39115  1  0
 39116  1  0
 41117  1  0
 43118  1  0
 43119  1  0
 44120  1  0
 44121  1  0
 45122  1  0
 46123  1  0
 46124  1  0
 47125  1  0
 47126  1  0
 48127  1  0
 49128  1  0
 49129  1  0
 55130  1  0
 55131  1  0
 56132  1  0
 57133  1  0
 57134  1  0
 58135  1  0
 58136  1  0
 59137  1  0
 60138  1  0
 60139  1  0
M  END
