
     RDKit          3D

127133  0  0  0  0  0  0  0  0999 V2000
   -2.9488    1.1816    4.5648 C   0  0  0  0  0  0  0  0  0  0  0  0
   -2.6495    0.2199    3.6564 N   0  0  0  0  0  0  0  0  0  0  0  0
   -3.5121   -0.0396    2.6427 C   0  0  0  0  0  0  0  0  0  0  0  0
   -2.1489   -0.5725    2.3170 C   0  0  0  0  0  0  0  0  0  0  0  0
   -2.0069   -0.9380    0.9422 N   0  0  0  0  0  0  0  0  0  0  0  0
   -0.7922   -0.4980    0.3186 C   0  0  0  0  0  0  0  0  0  0  0  0
    0.1322   -1.6149   -0.0798 C   0  0  0  0  0  0  0  0  0  0  0  0
    0.1741   -1.8007   -1.5024 N   0  0  0  0  0  0  0  0  0  0  0  0
    1.3808   -2.4718   -1.9626 C   0  0  0  0  0  0  0  0  0  0  0  0
    0.9014   -3.3764   -3.0943 C   0  0  0  0  0  0  0  0  0  0  0  0
   -0.4246   -3.9809   -2.6899 C   0  0  0  0  0  0  0  0  0  0  0  0
    0.6509   -4.6361   -2.0961 C   0  0  0  0  0  0  0  0  0  0  0  0
    0.3445   -5.3469   -0.9952 N   0  0  0  0  0  0  0  0  0  0  0  0
   -0.8996   -5.8709   -0.8696 C   0  0  0  0  0  0  0  0  0  0  0  0
   -1.6736   -5.6543   -1.9653 N   0  0  0  0  0  0  0  0  0  0  0  0
   -1.7501   -4.2950   -2.2827 C   0  0  0  0  0  0  0  0  0  0  0  0
   -3.0042   -3.4370   -2.1433 C   0  0  0  0  0  0  0  0  0  0  0  0
   -3.3179   -2.6281   -3.2845 N   0  0  0  0  0  0  0  0  0  0  0  0
   -3.2296   -1.2118   -3.0555 C   0  0  0  0  0  0  0  0  0  0  0  0
   -2.3125   -0.5162   -4.0206 C   0  0  0  0  0  0  0  0  0  0  0  0
   -1.8067    0.7450   -3.4819 N   0  0  0  0  0  0  0  0  0  0  0  0
   -1.2641    1.4849   -4.5732 C   0  0  0  0  0  0  0  0  0  0  0  0
   -0.0077    2.2571   -4.2906 C   0  0  0  0  0  0  0  0  0  0  0  0
    0.4275    3.5564   -4.4822 N   0  0  0  0  0  0  0  0  0  0  0  0
    0.7526    4.2400   -3.3502 C   0  0  0  0  0  0  0  0  0  0  0  0
    0.4633    3.4681   -2.1873 C   0  0  0  0  0  0  0  0  0  0  0  0
   -0.7022    3.7825   -1.2246 C   0  0  0  0  0  0  0  0  0  0  0  0
   -1.9664    3.9887   -1.8172 N   0  0  0  0  0  0  0  0  0  0  0  0
   -3.0755    3.6615   -0.9960 C   0  0  0  0  0  0  0  0  0  0  0  0
   -2.8138    3.5355    0.4642 C   0  0  0  0  0  0  0  0  0  0  0  0
   -3.8518    4.0141    1.3188 N   0  0  0  0  0  0  0  0  0  0  0  0
   -4.8185    3.0563    1.7323 C   0  0  0  0  0  0  0  0  0  0  0  0
   -4.3550    2.0693    2.7888 C   0  0  0  0  0  0  0  0  0  0  0  0
   -4.6465    0.7020    2.7625 N   0  0  0  0  0  0  0  0  0  0  0  0
   -3.6616    2.2439    4.0175 C   0  0  0  0  0  0  0  0  0  0  0  0
   -2.8753    2.7161    5.2195 C   0  0  0  0  0  0  0  0  0  0  0  0
   -1.4450    3.0588    4.8110 C   0  0  0  0  0  0  0  0  0  0  0  0
   -0.5244    2.9689    5.9102 N   0  0  0  0  0  0  0  0  0  0  0  0
    0.8310    2.6741    5.5310 C   0  0  0  0  0  0  0  0  0  0  0  0
    0.8899    1.6976    4.4150 C   0  0  0  0  0  0  0  0  0  0  0  0
    2.1686    0.9944    4.3055 N   0  0  0  0  0  0  0  0  0  0  0  0
    2.0124    0.2896    3.0399 C   0  0  0  0  0  0  0  0  0  0  0  0
    3.1172   -0.7039    2.8052 C   0  0  0  0  0  0  0  0  0  0  0  0
    1.9765   -1.3638    3.2628 C   0  0  0  0  0  0  0  0  0  0  0  0
    1.9923   -2.7085    3.0840 N   0  0  0  0  0  0  0  0  0  0  0  0
    3.1954   -3.3256    3.1792 C   0  0  0  0  0  0  0  0  0  0  0  0
    2.2582   -4.3741    2.6594 C   0  0  0  0  0  0  0  0  0  0  0  0
    1.0054   -4.2502    3.3342 N   0  0  0  0  0  0  0  0  0  0  0  0
   -0.1212   -4.8387    2.6856 C   0  0  0  0  0  0  0  0  0  0  0  0
    0.1755   -5.9952    1.7898 C   0  0  0  0  0  0  0  0  0  0  0  0
   -0.2842   -5.8116    0.4253 N   0  0  0  0  0  0  0  0  0  0  0  0
    4.2479   -2.4883    3.3707 N   0  0  0  0  0  0  0  0  0  0  0  0
    4.2554   -1.4655    2.4179 C   0  0  0  0  0  0  0  0  0  0  0  0
    5.3065   -1.2644    1.3295 C   0  0  0  0  0  0  0  0  0  0  0  0
    4.7355   -1.1425    0.0006 N   0  0  0  0  0  0  0  0  0  0  0  0
    4.7559    0.2627   -0.4078 C   0  0  0  0  0  0  0  0  0  0  0  0
    4.5155    0.4480   -1.8683 C   0  0  0  0  0  0  0  0  0  0  0  0
    3.7540    1.6155   -2.2183 N   0  0  0  0  0  0  0  0  0  0  0  0
    2.4470    1.4987   -1.6552 C   0  0  0  0  0  0  0  0  0  0  0  0
    1.3546    2.3015   -2.3691 C   0  0  0  0  0  0  0  0  0  0  0  0
    1.1179    1.8017   -3.6582 N   0  0  0  0  0  0  0  0  0  0  0  0
   -2.4238    1.2649    5.5165 H   0  0  0  0  0  0  0  0  0  0  0  0
   -2.0315   -1.4815    2.9547 H   0  0  0  0  0  0  0  0  0  0  0  0
   -1.3513    0.1314    2.6506 H   0  0  0  0  0  0  0  0  0  0  0  0
   -2.0446   -1.9850    0.8450 H   0  0  0  0  0  0  0  0  0  0  0  0
   -1.0663    0.0410   -0.6220 H   0  0  0  0  0  0  0  0  0  0  0  0
   -0.3328    0.2577    0.9701 H   0  0  0  0  0  0  0  0  0  0  0  0
   -0.0581   -2.5576    0.4504 H   0  0  0  0  0  0  0  0  0  0  0  0
    1.1607   -1.2946    0.2271 H   0  0  0  0  0  0  0  0  0  0  0  0
    0.2330   -0.8311   -1.9136 H   0  0  0  0  0  0  0  0  0  0  0  0
    1.7839   -3.0275   -1.1102 H   0  0  0  0  0  0  0  0  0  0  0  0
    2.1113   -1.7882   -2.4140 H   0  0  0  0  0  0  0  0  0  0  0  0
    0.8484   -2.8301   -4.0389 H   0  0  0  0  0  0  0  0  0  0  0  0
    1.6383   -4.1754   -3.2087 H   0  0  0  0  0  0  0  0  0  0  0  0
    1.6697   -4.5233   -2.4732 H   0  0  0  0  0  0  0  0  0  0  0  0
   -3.9112   -4.0230   -1.9956 H   0  0  0  0  0  0  0  0  0  0  0  0
   -2.9581   -2.8059   -1.2185 H   0  0  0  0  0  0  0  0  0  0  0  0
   -4.1871   -2.8675   -3.7825 H   0  0  0  0  0  0  0  0  0  0  0  0
   -2.8286   -1.0580   -2.0389 H   0  0  0  0  0  0  0  0  0  0  0  0
   -4.2323   -0.7292   -3.0925 H   0  0  0  0  0  0  0  0  0  0  0  0
   -2.7201   -0.4095   -5.0349 H   0  0  0  0  0  0  0  0  0  0  0  0
   -1.4093   -1.1717   -4.1133 H   0  0  0  0  0  0  0  0  0  0  0  0
   -2.5819    1.1980   -2.9717 H   0  0  0  0  0  0  0  0  0  0  0  0
   -2.1254    2.1447   -4.8627 H   0  0  0  0  0  0  0  0  0  0  0  0
   -1.1624    0.8525   -5.4965 H   0  0  0  0  0  0  0  0  0  0  0  0
    1.1999    5.2001   -3.5040 H   0  0  0  0  0  0  0  0  0  0  0  0
   -0.9524    2.9207   -0.5547 H   0  0  0  0  0  0  0  0  0  0  0  0
   -0.4024    4.5300   -0.4464 H   0  0  0  0  0  0  0  0  0  0  0  0
   -2.0547    4.8799   -2.3440 H   0  0  0  0  0  0  0  0  0  0  0  0
   -3.8592    4.4486   -1.1357 H   0  0  0  0  0  0  0  0  0  0  0  0
   -3.5441    2.7263   -1.3954 H   0  0  0  0  0  0  0  0  0  0  0  0
   -1.8972    4.0656    0.8187 H   0  0  0  0  0  0  0  0  0  0  0  0
   -2.6673    2.4504    0.6971 H   0  0  0  0  0  0  0  0  0  0  0  0
   -4.1887    4.9638    1.1486 H   0  0  0  0  0  0  0  0  0  0  0  0
   -5.7284    3.6192    2.0651 H   0  0  0  0  0  0  0  0  0  0  0  0
   -5.1061    2.6042    0.7845 H   0  0  0  0  0  0  0  0  0  0  0  0
   -2.7887    1.8854    5.9299 H   0  0  0  0  0  0  0  0  0  0  0  0
   -3.3719    3.5400    5.7466 H   0  0  0  0  0  0  0  0  0  0  0  0
   -1.2011    2.3841    3.9762 H   0  0  0  0  0  0  0  0  0  0  0  0
   -1.3850    4.0961    4.3945 H   0  0  0  0  0  0  0  0  0  0  0  0
   -0.5920    3.8797    6.4357 H   0  0  0  0  0  0  0  0  0  0  0  0
    1.3324    2.2293    6.4277 H   0  0  0  0  0  0  0  0  0  0  0  0
    1.3417    3.6266    5.3153 H   0  0  0  0  0  0  0  0  0  0  0  0
    0.7544    2.2076    3.4285 H   0  0  0  0  0  0  0  0  0  0  0  0
    0.1499    0.9068    4.6008 H   0  0  0  0  0  0  0  0  0  0  0  0
    2.9409    1.6695    4.1718 H   0  0  0  0  0  0  0  0  0  0  0  0
    1.0225   -0.2309    2.9753 H   0  0  0  0  0  0  0  0  0  0  0  0
    1.9628    1.0759    2.2738 H   0  0  0  0  0  0  0  0  0  0  0  0
    0.9926   -0.8893    3.2559 H   0  0  0  0  0  0  0  0  0  0  0  0
    2.7192   -5.3405    2.9881 H   0  0  0  0  0  0  0  0  0  0  0  0
    2.1695   -4.3378    1.5608 H   0  0  0  0  0  0  0  0  0  0  0  0
    1.1168   -4.4813    4.3351 H   0  0  0  0  0  0  0  0  0  0  0  0
   -0.7612   -4.1058    2.1322 H   0  0  0  0  0  0  0  0  0  0  0  0
   -0.7948   -5.2205    3.4963 H   0  0  0  0  0  0  0  0  0  0  0  0
   -0.2866   -6.9495    2.1513 H   0  0  0  0  0  0  0  0  0  0  0  0
    1.2767   -6.1924    1.8388 H   0  0  0  0  0  0  0  0  0  0  0  0
    0.6859   -5.8825    0.0192 H   0  0  0  0  0  0  0  0  0  0  0  0
    5.9802   -0.4034    1.5782 H   0  0  0  0  0  0  0  0  0  0  0  0
    5.9992   -2.0985    1.2278 H   0  0  0  0  0  0  0  0  0  0  0  0
    5.2521   -1.6536   -0.7326 H   0  0  0  0  0  0  0  0  0  0  0  0
    4.0504    0.7725    0.2582 H   0  0  0  0  0  0  0  0  0  0  0  0
    5.7722    0.6277   -0.1106 H   0  0  0  0  0  0  0  0  0  0  0  0
    4.1145   -0.4921   -2.3177 H   0  0  0  0  0  0  0  0  0  0  0  0
    5.5192    0.5755   -2.3501 H   0  0  0  0  0  0  0  0  0  0  0  0
    3.7312    1.6528   -3.2677 H   0  0  0  0  0  0  0  0  0  0  0  0
    2.6902    1.9547   -0.6521 H   0  0  0  0  0  0  0  0  0  0  0  0
    2.1359    0.5043   -1.3296 H   0  0  0  0  0  0  0  0  0  0  0  0
  1  2  2  0
  2  3  1  0
  3  4  1  0
  4  5  1  0
  5  6  1  0
  6  7  1  0
  7  8  1  0
  8  9  1  0
  9 10  1  0
 10 11  1  0
 11 12  2  0
 12 13  1  0
 13 14  2  0
 14 15  1  0
 15 16  2  0
 16 17  1  0
 17 18  1  0
 18 19  1  0
 19 20  1  0
 20 21  1  0
 21 22  1  0
 22 23  1  0
 23 24  2  0
 24 25  1  0
 25 26  2  0
 26 27  1  0
 27 28  1  0
 28 29  1  0
 29 30  1  0
 30 31  1  0
 31 32  1  0
 32 33  1  0
 33 34  1  0
 33 35  2  0
 35 36  1  0
 36 37  1  0
 37 38  1  0
 38 39  1  0
 39 40  1  0
 40 41  1  0
 41 42  1  0
 42 43  1  0
 43 44  2  0
 44 45  1  0
 45 46  2  0
 46 47  1  0
 47 48  1  0
 48 49  1  0
 49 50  1  0
 50 51  1  0
 46 52  1  0
 52 53  2  0
 53 54  1  0
 54 55  1  0
 55 56  1  0
 56 57  1  0
 57 58  1  0
 58 59  1  0
 59 60  1  0
 60 61  2  0
 35  1  1  0
 53 43  1  0
 34  3  2  0
 16 11  1  0
 61 23  1  0
 51 14  1  0
 60 26  1  0
  1 62  1  0
  4 63  1  0
  4 64  1  0
  5 65  1  0
  6 66  1  0
  6 67  1  0
  7 68  1  0
  7 69  1  0
  8 70  1  0
  9 71  1  0
  9 72  1  0
 10 73  1  0
 10 74  1  0
 12 75  1  0
 17 76  1  0
 17 77  1  0
 18 78  1  0
 19 79  1  0
 19 80  1  0
 20 81  1  0
 20 82  1  0
 21 83  1  0
 22 84  1  0
 22 85  1  0
 25 86  1  0
 27 87  1  0
 27 88  1  0
 28 89  1  0
 29 90  1  0
 29 91  1  0
 30 92  1  0
 30 93  1  0
 31 94  1  0
 32 95  1  0
 32 96  1  0
 36 97  1  0
 36 98  1  0
 37 99  1  0
 37100  1  0
 38101  1  0
 39102  1  0
 39103  1  0
 40104  1  0
 40105  1  0
 41106  1  0
 42107  1  0
 42108  1  0
 44109  1  0
 47110  1  0
 47111  1  0
 48112  1  0
 49113  1  0
 49114  1  0
 50115  1  0
 50116  1  0
 51117  1  0
 54118  1  0
 54119  1  0
 55120  1  0
 56121  1  0
 56122  1  0
 57123  1  0
 57124  1  0
 58125  1  0
 59126  1  0
 59127  1  0
M  END
