
     RDKit          3D

171181  0  0  0  0  0  0  0  0999 V2000
    4.1491    1.4732    0.1802 C   0  0  0  0  0  0  0  0  0  0  0  0
    2.8606    0.9791    0.2067 C   0  0  0  0  0  0  0  0  0  0  0  0
    1.8019    1.8197   -0.1168 C   0  0  0  0  0  0  0  0  0  0  0  0
    1.8782    3.1508    0.1885 C   0  0  0  0  0  0  0  0  0  0  0  0
    3.1612    3.6548    0.3791 C   0  0  0  0  0  0  0  0  0  0  0  0
    4.2798    2.8309    0.3904 C   0  0  0  0  0  0  0  0  0  0  0  0
    3.4335    5.0846    0.0244 C   0  0  0  0  0  0  0  0  0  0  0  0
    2.1818    5.6143   -0.4180 N   0  0  0  0  0  0  0  0  0  0  0  0
    1.9316    5.5156   -1.8175 C   0  0  0  0  0  0  0  0  0  0  0  0
    2.8277    4.5911   -2.5082 N   0  0  0  0  0  0  0  0  0  0  0  0
    2.1167    3.9740   -3.6072 C   0  0  0  0  0  0  0  0  0  0  0  0
    2.9674    3.0372   -4.4140 C   0  0  0  0  0  0  0  0  0  0  0  0
    3.0019    1.7318   -3.7580 N   0  0  0  0  0  0  0  0  0  0  0  0
    3.9696    0.8346   -4.3302 C   0  0  0  0  0  0  0  0  0  0  0  0
    3.4092   -0.4247   -4.8871 C   0  0  0  0  0  0  0  0  0  0  0  0
    3.2710   -1.5770   -3.9680 C   0  0  0  0  0  0  0  0  0  0  0  0
    4.4853   -1.9476   -3.1778 C   0  0  0  0  0  0  0  0  0  0  0  0
    4.2295   -1.9339   -1.7459 N   0  0  0  0  0  0  0  0  0  0  0  0
    4.3005   -3.2363   -1.1403 C   0  0  0  0  0  0  0  0  0  0  0  0
    4.2570   -3.0952    0.3550 C   0  0  0  0  0  0  0  0  0  0  0  0
    3.2957   -4.0187    0.9069 N   0  0  0  0  0  0  0  0  0  0  0  0
    3.1284   -3.8680    2.3439 C   0  0  0  0  0  0  0  0  0  0  0  0
    1.8975   -4.3298    2.8494 N   0  0  0  0  0  0  0  0  0  0  0  0
    1.3234   -5.4764    2.2635 C   0  0  0  0  0  0  0  0  0  0  0  0
   -0.0452   -5.0892    1.7934 C   0  0  0  0  0  0  0  0  0  0  0  0
   -0.7336   -6.0246    1.0310 C   0  0  0  0  0  0  0  0  0  0  0  0
   -1.6358   -5.6096    0.0700 C   0  0  0  0  0  0  0  0  0  0  0  0
   -1.8823   -4.2704   -0.0703 C   0  0  0  0  0  0  0  0  0  0  0  0
   -1.2724   -3.3780    0.7665 C   0  0  0  0  0  0  0  0  0  0  0  0
   -0.3829   -3.7396    1.7709 C   0  0  0  0  0  0  0  0  0  0  0  0
   -0.0811   -2.8531    2.9274 C   0  0  0  0  0  0  0  0  0  0  0  0
    0.4840   -1.5608    2.4159 C   0  0  0  0  0  0  0  0  0  0  0  0
    0.9815   -0.6829    3.4720 N   0  0  0  0  0  0  0  0  0  0  0  0
    0.4592    0.6343    3.3382 C   0  0  0  0  0  0  0  0  0  0  0  0
    1.2995    1.7928    3.6600 C   0  0  0  0  0  0  0  0  0  0  0  0
    1.6071    2.6998    2.6125 N   0  0  0  0  0  0  0  0  0  0  0  0
    0.5853    3.5782    2.1579 C   0  0  0  0  0  0  0  0  0  0  0  0
    0.7183    3.9576    0.6864 C   0  0  0  0  0  0  0  0  0  0  0  0
   -0.5504    3.5871   -0.0750 C   0  0  0  0  0  0  0  0  0  0  0  0
   -1.6929    4.5032    0.1156 C   0  0  0  0  0  0  0  0  0  0  0  0
   -2.9422    3.9578    0.4768 N   0  0  0  0  0  0  0  0  0  0  0  0
   -3.9234    3.7856   -0.5465 C   0  0  0  0  0  0  0  0  0  0  0  0
   -5.1930    3.1388   -0.0672 C   0  0  0  0  0  0  0  0  0  0  0  0
   -5.4047    1.8096   -0.5541 N   0  0  0  0  0  0  0  0  0  0  0  0
   -6.3327    1.0101    0.2469 C   0  0  0  0  0  0  0  0  0  0  0  0
   -5.5205   -0.0373    0.9208 C   0  0  0  0  0  0  0  0  0  0  0  0
   -6.1446   -1.3126    1.3737 C   0  0  0  0  0  0  0  0  0  0  0  0
   -5.0102   -2.1710    1.7345 N   0  0  0  0  0  0  0  0  0  0  0  0
   -4.9665   -2.6526    3.0459 C   0  0  0  0  0  0  0  0  0  0  0  0
   -3.6861   -2.6901    3.7803 C   0  0  0  0  0  0  0  0  0  0  0  0
   -2.5357   -3.2122    3.1180 N   0  0  0  0  0  0  0  0  0  0  0  0
   -1.3060   -2.7430    3.7560 C   0  0  0  0  0  0  0  0  0  0  0  0
   -4.4484   -0.4170   -0.0227 C   0  0  0  0  0  0  0  0  0  0  0  0
   -3.2667    0.2865    0.2556 N   0  0  0  0  0  0  0  0  0  0  0  0
   -2.3139    0.1668   -0.7708 C   0  0  0  0  0  0  0  0  0  0  0  0
   -2.6386   -0.7534   -1.8284 N   0  0  0  0  0  0  0  0  0  0  0  0
   -2.3197   -0.1873   -3.1376 C   0  0  0  0  0  0  0  0  0  0  0  0
   -0.8532    0.2051   -3.2163 C   0  0  0  0  0  0  0  0  0  0  0  0
   -0.0780   -0.8983   -2.7044 N   0  0  0  0  0  0  0  0  0  0  0  0
    0.8340   -1.3986   -3.6559 N   0  0  0  0  0  0  0  0  0  0  0  0
    0.5328   -2.8095   -3.8895 C   0  0  0  0  0  0  0  0  0  0  0  0
    1.6421   -3.3520   -4.7154 C   0  0  0  0  0  0  0  0  0  0  0  0
    1.3088   -4.3740   -5.5957 C   0  0  0  0  0  0  0  0  0  0  0  0
    2.0488   -4.6411   -6.7288 C   0  0  0  0  0  0  0  0  0  0  0  0
    3.1140   -3.7896   -6.9948 C   0  0  0  0  0  0  0  0  0  0  0  0
    3.5939   -2.9908   -5.9767 C   0  0  0  0  0  0  0  0  0  0  0  0
    2.8841   -2.7588   -4.8062 C   0  0  0  0  0  0  0  0  0  0  0  0
    2.1379   -1.3801   -3.0032 C   0  0  0  0  0  0  0  0  0  0  0  0
   -2.8542    0.4589    1.5721 C   0  0  0  0  0  0  0  0  0  0  0  0
   -3.8697    0.9401    2.5240 C   0  0  0  0  0  0  0  0  0  0  0  0
   -3.5816    1.4935    3.7390 C   0  0  0  0  0  0  0  0  0  0  0  0
   -4.5573    1.4432    4.7270 C   0  0  0  0  0  0  0  0  0  0  0  0
   -5.8795    1.3520    4.3216 C   0  0  0  0  0  0  0  0  0  0  0  0
   -6.1798    0.9898    3.0140 C   0  0  0  0  0  0  0  0  0  0  0  0
   -5.1328    0.6040    2.1874 C   0  0  0  0  0  0  0  0  0  0  0  0
    1.0769    5.3854    0.4537 C   0  0  0  0  0  0  0  0  0  0  0  0
    1.0969   -3.5046    3.6477 C   0  0  0  0  0  0  0  0  0  0  0  0
    4.9746    0.8073    0.3782 H   0  0  0  0  0  0  0  0  0  0  0  0
    2.7367   -0.1037    0.2636 H   0  0  0  0  0  0  0  0  0  0  0  0
    0.8391    1.3740   -0.2489 H   0  0  0  0  0  0  0  0  0  0  0  0
    5.2824    3.2346    0.2755 H   0  0  0  0  0  0  0  0  0  0  0  0
    4.1576    5.1819   -0.8000 H   0  0  0  0  0  0  0  0  0  0  0  0
    3.8751    5.6290    0.8911 H   0  0  0  0  0  0  0  0  0  0  0  0
    2.1821    6.5183   -2.2537 H   0  0  0  0  0  0  0  0  0  0  0  0
    0.8716    5.3555   -2.0922 H   0  0  0  0  0  0  0  0  0  0  0  0
    3.6579    5.0675   -2.9068 H   0  0  0  0  0  0  0  0  0  0  0  0
    1.7528    4.7674   -4.2900 H   0  0  0  0  0  0  0  0  0  0  0  0
    1.2488    3.4484   -3.1852 H   0  0  0  0  0  0  0  0  0  0  0  0
    3.9705    3.4358   -4.6187 H   0  0  0  0  0  0  0  0  0  0  0  0
    2.4334    2.8735   -5.3842 H   0  0  0  0  0  0  0  0  0  0  0  0
    3.3625    1.9602   -2.7934 H   0  0  0  0  0  0  0  0  0  0  0  0
    4.4369    1.3894   -5.1845 H   0  0  0  0  0  0  0  0  0  0  0  0
    4.8280    0.6196   -3.6442 H   0  0  0  0  0  0  0  0  0  0  0  0
    3.9848   -0.7339   -5.7959 H   0  0  0  0  0  0  0  0  0  0  0  0
    2.3837   -0.1895   -5.2707 H   0  0  0  0  0  0  0  0  0  0  0  0
    4.8145   -2.9948   -3.4024 H   0  0  0  0  0  0  0  0  0  0  0  0
    5.3825   -1.3237   -3.4214 H   0  0  0  0  0  0  0  0  0  0  0  0
    4.9515   -1.3403   -1.2943 H   0  0  0  0  0  0  0  0  0  0  0  0
    5.2564   -3.6989   -1.4959 H   0  0  0  0  0  0  0  0  0  0  0  0
    3.5024   -3.9290   -1.4721 H   0  0  0  0  0  0  0  0  0  0  0  0
    5.2578   -3.4183    0.7391 H   0  0  0  0  0  0  0  0  0  0  0  0
    4.1259   -2.0568    0.6982 H   0  0  0  0  0  0  0  0  0  0  0  0
    2.4180   -3.9052    0.3750 H   0  0  0  0  0  0  0  0  0  0  0  0
    3.9309   -4.5173    2.7844 H   0  0  0  0  0  0  0  0  0  0  0  0
    3.3599   -2.8568    2.7049 H   0  0  0  0  0  0  0  0  0  0  0  0
    1.9568   -5.8354    1.4398 H   0  0  0  0  0  0  0  0  0  0  0  0
    1.1770   -6.2480    3.0611 H   0  0  0  0  0  0  0  0  0  0  0  0
   -0.3323   -7.0316    0.9425 H   0  0  0  0  0  0  0  0  0  0  0  0
   -1.9570   -6.2486   -0.7548 H   0  0  0  0  0  0  0  0  0  0  0  0
   -2.3151   -3.8627   -0.9857 H   0  0  0  0  0  0  0  0  0  0  0  0
   -1.6789   -2.3935    0.8326 H   0  0  0  0  0  0  0  0  0  0  0  0
    1.3979   -1.8408    1.8293 H   0  0  0  0  0  0  0  0  0  0  0  0
   -0.1443   -1.0404    1.6847 H   0  0  0  0  0  0  0  0  0  0  0  0
    2.0081   -0.7262    3.5828 H   0  0  0  0  0  0  0  0  0  0  0  0
    0.1590    0.7330    2.2640 H   0  0  0  0  0  0  0  0  0  0  0  0
   -0.5064    0.6719    3.9036 H   0  0  0  0  0  0  0  0  0  0  0  0
    0.8378    2.3806    4.4939 H   0  0  0  0  0  0  0  0  0  0  0  0
    2.2707    1.4276    4.0812 H   0  0  0  0  0  0  0  0  0  0  0  0
    2.4230    3.2904    2.9243 H   0  0  0  0  0  0  0  0  0  0  0  0
   -0.4184    3.1501    2.3150 H   0  0  0  0  0  0  0  0  0  0  0  0
    0.6519    4.5317    2.7246 H   0  0  0  0  0  0  0  0  0  0  0  0
   -0.7305    2.5602    0.2492 H   0  0  0  0  0  0  0  0  0  0  0  0
   -0.3182    3.5126   -1.1674 H   0  0  0  0  0  0  0  0  0  0  0  0
   -1.8338    5.1421   -0.7927 H   0  0  0  0  0  0  0  0  0  0  0  0
   -1.4190    5.2258    0.9280 H   0  0  0  0  0  0  0  0  0  0  0  0
   -3.3711    4.3541    1.3311 H   0  0  0  0  0  0  0  0  0  0  0  0
   -3.5275    3.1533   -1.3802 H   0  0  0  0  0  0  0  0  0  0  0  0
   -4.0946    4.7899   -1.0105 H   0  0  0  0  0  0  0  0  0  0  0  0
   -6.0253    3.7538   -0.5015 H   0  0  0  0  0  0  0  0  0  0  0  0
   -5.2945    3.2602    1.0200 H   0  0  0  0  0  0  0  0  0  0  0  0
   -5.7004    1.8319   -1.5561 H   0  0  0  0  0  0  0  0  0  0  0  0
   -7.0573    0.5205   -0.4485 H   0  0  0  0  0  0  0  0  0  0  0  0
   -6.8727    1.6932    0.9164 H   0  0  0  0  0  0  0  0  0  0  0  0
   -6.6999   -1.7597    0.5113 H   0  0  0  0  0  0  0  0  0  0  0  0
   -6.8636   -1.2083    2.1989 H   0  0  0  0  0  0  0  0  0  0  0  0
   -4.9969   -2.9852    1.0642 H   0  0  0  0  0  0  0  0  0  0  0  0
   -5.4014   -3.6852    3.0725 H   0  0  0  0  0  0  0  0  0  0  0  0
   -5.6738   -2.0466    3.6690 H   0  0  0  0  0  0  0  0  0  0  0  0
   -3.8438   -3.3160    4.6966 H   0  0  0  0  0  0  0  0  0  0  0  0
   -3.4083   -1.6833    4.1844 H   0  0  0  0  0  0  0  0  0  0  0  0
   -2.5542   -4.2553    3.1502 H   0  0  0  0  0  0  0  0  0  0  0  0
   -1.1628   -3.3596    4.6791 H   0  0  0  0  0  0  0  0  0  0  0  0
   -1.4745   -1.7029    4.1338 H   0  0  0  0  0  0  0  0  0  0  0  0
   -4.2119   -1.5007   -0.0839 H   0  0  0  0  0  0  0  0  0  0  0  0
   -4.7365   -0.1685   -1.0798 H   0  0  0  0  0  0  0  0  0  0  0  0
   -1.3273   -0.0509   -0.2877 H   0  0  0  0  0  0  0  0  0  0  0  0
   -2.1758    1.1683   -1.2519 H   0  0  0  0  0  0  0  0  0  0  0  0
   -1.9985   -1.5781   -1.7218 H   0  0  0  0  0  0  0  0  0  0  0  0
   -2.4693   -0.9762   -3.8993 H   0  0  0  0  0  0  0  0  0  0  0  0
   -2.9579    0.6814   -3.3842 H   0  0  0  0  0  0  0  0  0  0  0  0
   -0.5914    0.3893   -4.2676 H   0  0  0  0  0  0  0  0  0  0  0  0
   -0.6861    1.1514   -2.6425 H   0  0  0  0  0  0  0  0  0  0  0  0
    0.4101   -0.5409   -1.8447 H   0  0  0  0  0  0  0  0  0  0  0  0
    0.4807   -3.3579   -2.9150 H   0  0  0  0  0  0  0  0  0  0  0  0
   -0.4574   -2.9269   -4.3648 H   0  0  0  0  0  0  0  0  0  0  0  0
    0.3511   -4.8863   -5.5062 H   0  0  0  0  0  0  0  0  0  0  0  0
    1.6444   -5.1697   -7.5934 H   0  0  0  0  0  0  0  0  0  0  0  0
    3.4478   -3.6319   -8.0216 H   0  0  0  0  0  0  0  0  0  0  0  0
    4.6189   -2.6533   -6.0619 H   0  0  0  0  0  0  0  0  0  0  0  0
    2.2290   -0.3977   -2.5245 H   0  0  0  0  0  0  0  0  0  0  0  0
    2.0962   -2.1342   -2.2050 H   0  0  0  0  0  0  0  0  0  0  0  0
   -2.0721    1.2452    1.6239 H   0  0  0  0  0  0  0  0  0  0  0  0
   -2.4224   -0.4465    1.9888 H   0  0  0  0  0  0  0  0  0  0  0  0
   -2.5984    1.8821    3.9095 H   0  0  0  0  0  0  0  0  0  0  0  0
   -4.2555    1.4735    5.7654 H   0  0  0  0  0  0  0  0  0  0  0  0
   -6.6428    1.3192    5.1010 H   0  0  0  0  0  0  0  0  0  0  0  0
   -7.2153    0.7335    2.7868 H   0  0  0  0  0  0  0  0  0  0  0  0
    1.3411    5.8278    1.4478 H   0  0  0  0  0  0  0  0  0  0  0  0
    0.2381    6.0134    0.0742 H   0  0  0  0  0  0  0  0  0  0  0  0
    1.7130   -2.7458    4.1491 H   0  0  0  0  0  0  0  0  0  0  0  0
    0.6356   -4.1161    4.4641 H   0  0  0  0  0  0  0  0  0  0  0  0
  1  2  2  0
  2  3  1  0
  3  4  2  0
  4  5  1  0
  5  6  2  0
  5  7  1  0
  7  8  1  0
  8  9  1  0
  9 10  1  0
 10 11  1  0
 11 12  1  0
 12 13  1  0
 13 14  1  0
 14 15  1  0
 15 16  1  0
 16 17  1  0
 17 18  1  0
 18 19  1  0
 19 20  1  0
 20 21  1  0
 21 22  1  0
 22 23  1  0
 23 24  1  0
 24 25  1  0
 25 26  2  0
 26 27  1  0
 27 28  2  0
 28 29  1  0
 29 30  2  0
 30 31  1  0
 31 32  1  0
 32 33  1  0
 33 34  1  0
 34 35  1  0
 35 36  1  0
 36 37  1  0
 37 38  1  0
 38 39  1  0
 39 40  1  0
 40 41  1  0
 41 42  1  0
 42 43  1  0
 43 44  1  0
 44 45  1  0
 45 46  1  0
 46 47  1  0
 47 48  1  0
 48 49  1  0
 49 50  1  0
 50 51  1  0
 51 52  1  0
 46 53  1  0
 53 54  1  0
 54 55  1  0
 55 56  1  0
 56 57  1  0
 57 58  1  0
 58 59  1  0
 59 60  1  0
 60 61  1  0
 61 62  1  0
 62 63  2  0
 63 64  1  0
 64 65  2  0
 65 66  1  0
 66 67  2  0
 60 68  1  0
 54 69  1  0
 69 70  1  0
 70 71  2  0
 71 72  1  0
 72 73  2  0
 73 74  1  0
 74 75  2  0
 38 76  1  0
 31 77  1  0
  6  1  1  0
 76  8  1  0
 38  4  1  0
 75 46  1  0
 67 16  1  0
 75 70  1  0
 68 16  1  0
 77 23  1  0
 30 25  1  0
 52 31  1  0
 67 62  1  0
  1 78  1  0
  2 79  1  0
  3 80  1  0
  6 81  1  0
  7 82  1  0
  7 83  1  0
  9 84  1  0
  9 85  1  0
 10 86  1  0
 11 87  1  0
 11 88  1  0
 12 89  1  0
 12 90  1  0
 13 91  1  0
 14 92  1  0
 14 93  1  0
 15 94  1  0
 15 95  1  0
 17 96  1  0
 17 97  1  0
 18 98  1  0
 19 99  1  0
 19100  1  0
 20101  1  0
 20102  1  0
 21103  1  0
 22104  1  0
 22105  1  0
 24106  1  0
 24107  1  0
 26108  1  0
 27109  1  0
 28110  1  0
 29111  1  0
 32112  1  0
 32113  1  0
 33114  1  0
 34115  1  0
 34116  1  0
 35117  1  0
 35118  1  0
 36119  1  0
 37120  1  0
 37121  1  0
 39122  1  0
 39123  1  0
 40124  1  0
 40125  1  0
 41126  1  0
 42127  1  0
 42128  1  0
 43129  1  0
 43130  1  0
 44131  1  0
 45132  1  0
 45133  1  0
 47134  1  0
 47135  1  0
 48136  1  0
 49137  1  0
 49138  1  0
 50139  1  0
 50140  1  0
 51141  1  0
 52142  1  0
 52143  1  0
 53144  1  0
 53145  1  0
 55146  1  0
 55147  1  0
 56148  1  0
 57149  1  0
 57150  1  0
 58151  1  0
 58152  1  0
 59153  1  0
 61154  1  0
 61155  1  0
 63156  1  0
 64157  1  0
 65158  1  0
 66159  1  0
 68160  1  0
 68161  1  0
 69162  1  0
 69163  1  0
 71164  1  0
 72165  1  0
 73166  1  0
 74167  1  0
 76168  1  0
 76169  1  0
 77170  1  0
 77171  1  0
M  END
