
     RDKit          3D

207217  0  0  0  0  0  0  0  0999 V2000
   -3.1600    1.2169    4.8456 O   0  0  0  0  0  0  0  0  0  0  0  0
   -2.1660    1.4896    4.8055 C   0  0  0  0  0  0  0  0  0  0  0  0
   -1.5571    1.9828    6.0080 N   0  0  0  0  0  0  0  0  0  0  0  0
   -0.4450    1.2894    6.6205 C   0  0  0  0  0  0  0  0  0  0  0  0
    0.3726    2.1656    7.5206 C   0  0  0  0  0  0  0  0  0  0  0  0
   -0.4396    3.0464    8.4224 C   0  0  0  0  0  0  0  0  0  0  0  0
   -1.6194    3.6828    7.7440 C   0  0  0  0  0  0  0  0  0  0  0  0
   -2.4278    2.7205    6.9204 C   0  0  0  0  0  0  0  0  0  0  0  0
    0.4672    4.1450    8.8819 C   0  0  0  0  0  0  0  0  0  0  0  0
    1.8482    4.0323    8.7795 C   0  0  0  0  0  0  0  0  0  0  0  0
    2.6692    5.0980    8.8173 N   0  0  0  0  0  0  0  0  0  0  0  0
    2.1451    6.3236    8.8813 C   0  0  0  0  0  0  0  0  0  0  0  0
    3.2888    7.8094    8.5937 Br  0  0  0  0  0  0  0  0  0  0  0  0
    0.7860    6.4806    9.1120 C   0  0  0  0  0  0  0  0  0  0  0  0
   -0.0152    5.3935    9.0825 N   0  0  0  0  0  0  0  0  0  0  0  0
   -1.5513    1.7537    3.4616 C   0  0  0  0  0  0  0  0  0  0  0  0
   -2.6657    2.1598    2.5215 C   0  0  0  0  0  0  0  0  0  0  0  0
   -3.3913    0.9471    2.0247 C   0  0  0  0  0  0  0  0  0  0  0  0
   -4.6517    1.2414    1.3877 N   0  0  0  0  0  0  0  0  0  0  0  0
   -5.1281   -0.0314    0.8479 C   0  0  0  0  0  0  0  0  0  0  0  0
   -5.8373    0.1237   -0.4612 C   0  0  0  0  0  0  0  0  0  0  0  0
   -5.1860   -0.5249   -1.5669 N   0  0  0  0  0  0  0  0  0  0  0  0
   -3.7857   -0.2375   -1.6797 C   0  0  0  0  0  0  0  0  0  0  0  0
   -3.2808   -0.2465   -3.0920 C   0  0  0  0  0  0  0  0  0  0  0  0
   -1.9042    0.3440   -3.1929 C   0  0  0  0  0  0  0  0  0  0  0  0
   -1.3856    0.8557   -1.9541 N   0  0  0  0  0  0  0  0  0  0  0  0
   -0.0163    1.2951   -2.2236 C   0  0  0  0  0  0  0  0  0  0  0  0
    0.6380    1.7916   -0.9390 C   0  0  0  0  0  0  0  0  0  0  0  0
    2.0246    1.4646   -0.8471 N   0  0  0  0  0  0  0  0  0  0  0  0
    2.4424    0.9201    0.4163 C   0  0  0  0  0  0  0  0  0  0  0  0
    3.8637    1.3143    0.7080 C   0  0  0  0  0  0  0  0  0  0  0  0
    3.8807    2.8390    0.6172 C   0  0  0  0  0  0  0  0  0  0  0  0
    2.6384    3.4279    1.0185 N   0  0  0  0  0  0  0  0  0  0  0  0
    2.4575    3.5983    2.4229 C   0  0  0  0  0  0  0  0  0  0  0  0
    1.1223    4.2335    2.6877 C   0  0  0  0  0  0  0  0  0  0  0  0
   -0.0018    3.3807    2.4494 N   0  0  0  0  0  0  0  0  0  0  0  0
   -0.6798    2.9876    3.6533 C   0  0  0  0  0  0  0  0  0  0  0  0
    4.7394    0.6614   -0.3221 C   0  0  0  0  0  0  0  0  0  0  0  0
    4.2558   -0.6520   -0.6457 N   0  0  0  0  0  0  0  0  0  0  0  0
    5.1464   -1.4368   -1.4490 C   0  0  0  0  0  0  0  0  0  0  0  0
    4.4150   -2.4372   -2.3389 C   0  0  0  0  0  0  0  0  0  0  0  0
    3.3363   -2.9924   -1.5917 N   0  0  0  0  0  0  0  0  0  0  0  0
    2.5765   -4.0144   -2.2377 C   0  0  0  0  0  0  0  0  0  0  0  0
    1.1691   -3.5590   -2.6235 C   0  0  0  0  0  0  0  0  0  0  0  0
    0.8340   -2.4413   -1.6948 C   0  0  0  0  0  0  0  0  0  0  0  0
    0.7616   -2.8161   -0.2486 C   0  0  0  0  0  0  0  0  0  0  0  0
   -0.2302   -2.0246    0.4864 N   0  0  0  0  0  0  0  0  0  0  0  0
    0.0707   -1.9887    1.8967 C   0  0  0  0  0  0  0  0  0  0  0  0
   -1.1365   -1.8110    2.7679 C   0  0  0  0  0  0  0  0  0  0  0  0
   -1.0741   -0.6627    3.6224 N   0  0  0  0  0  0  0  0  0  0  0  0
   -0.7694    0.5700    2.9672 C   0  0  0  0  0  0  0  0  0  0  0  0
    0.2314   -4.6074   -2.7171 N   0  0  0  0  0  0  0  0  0  0  0  0
   -1.1266   -4.3684   -2.4213 C   0  0  0  0  0  0  0  0  0  0  0  0
   -1.8813   -3.4703   -3.3517 C   0  0  0  0  0  0  0  0  0  0  0  0
   -2.8873   -2.6542   -2.6699 N   0  0  0  0  0  0  0  0  0  0  0  0
   -3.3364   -1.6766   -3.6177 C   0  0  0  0  0  0  0  0  0  0  0  0
    1.3690   -3.0197   -4.0075 C   0  0  0  0  0  0  0  0  0  0  0  0
    1.4265   -1.7795   -4.2448 O   0  0  0  0  0  0  0  0  0  0  0  0
    1.7941   -3.8592   -5.0888 N   0  0  0  0  0  0  0  0  0  0  0  0
    3.0104   -3.5631   -5.8451 C   0  0  0  0  0  0  0  0  0  0  0  0
    3.7233   -4.8480   -6.1633 C   0  0  0  0  0  0  0  0  0  0  0  0
    2.8543   -6.0442   -5.7914 C   0  0  0  0  0  0  0  0  0  0  0  0
    1.5397   -5.8575   -6.4893 C   0  0  0  0  0  0  0  0  0  0  0  0
    0.8455   -4.6604   -5.8604 C   0  0  0  0  0  0  0  0  0  0  0  0
    3.5794   -7.2611   -6.1990 C   0  0  0  0  0  0  0  0  0  0  0  0
    2.8821   -8.4612   -6.1378 C   0  0  0  0  0  0  0  0  0  0  0  0
    3.5026   -9.6400   -5.8949 N   0  0  0  0  0  0  0  0  0  0  0  0
    4.7994   -9.6498   -5.5138 C   0  0  0  0  0  0  0  0  0  0  0  0
    5.4337  -11.0014   -4.3139 Br  0  0  0  0  0  0  0  0  0  0  0  0
    5.5342   -8.4952   -5.7530 C   0  0  0  0  0  0  0  0  0  0  0  0
    4.9228   -7.3166   -6.0245 N   0  0  0  0  0  0  0  0  0  0  0  0
    4.3359    0.9862    2.0530 C   0  0  0  0  0  0  0  0  0  0  0  0
    5.2091    1.7462    2.5775 O   0  0  0  0  0  0  0  0  0  0  0  0
    4.2592   -0.3041    2.6716 N   0  0  0  0  0  0  0  0  0  0  0  0
    3.4232   -0.3544    3.8714 C   0  0  0  0  0  0  0  0  0  0  0  0
    4.1467   -1.1686    4.9386 C   0  0  0  0  0  0  0  0  0  0  0  0
    4.5280   -2.5446    4.4056 C   0  0  0  0  0  0  0  0  0  0  0  0
    5.2440   -2.4408    3.0880 C   0  0  0  0  0  0  0  0  0  0  0  0
    5.5486   -0.9761    2.8515 C   0  0  0  0  0  0  0  0  0  0  0  0
    3.3281   -3.4087    4.3502 C   0  0  0  0  0  0  0  0  0  0  0  0
    3.1992   -4.4775    3.4873 C   0  0  0  0  0  0  0  0  0  0  0  0
    2.3339   -5.4756    3.7397 N   0  0  0  0  0  0  0  0  0  0  0  0
    1.3786   -5.3353    4.6785 C   0  0  0  0  0  0  0  0  0  0  0  0
   -0.3237   -6.1722    4.5389 Br  0  0  0  0  0  0  0  0  0  0  0  0
    1.5607   -4.3180    5.6069 C   0  0  0  0  0  0  0  0  0  0  0  0
    2.5257   -3.4085    5.4330 N   0  0  0  0  0  0  0  0  0  0  0  0
   -4.1400    0.5249   -4.0264 C   0  0  0  0  0  0  0  0  0  0  0  0
   -3.8947    0.3755   -5.2597 O   0  0  0  0  0  0  0  0  0  0  0  0
   -5.0918    1.4918   -3.6637 N   0  0  0  0  0  0  0  0  0  0  0  0
   -4.7439    2.7767   -3.0605 C   0  0  0  0  0  0  0  0  0  0  0  0
   -4.4221    3.7492   -4.1561 C   0  0  0  0  0  0  0  0  0  0  0  0
   -5.5879    3.8847   -5.0919 C   0  0  0  0  0  0  0  0  0  0  0  0
   -6.7129    2.9445   -4.8171 C   0  0  0  0  0  0  0  0  0  0  0  0
   -6.2979    1.5440   -4.4891 C   0  0  0  0  0  0  0  0  0  0  0  0
   -5.0680    3.8200   -6.4731 C   0  0  0  0  0  0  0  0  0  0  0  0
   -3.9803    4.6387   -6.7521 C   0  0  0  0  0  0  0  0  0  0  0  0
   -3.2203    4.5018   -7.8440 N   0  0  0  0  0  0  0  0  0  0  0  0
   -3.6448    3.6485   -8.7976 C   0  0  0  0  0  0  0  0  0  0  0  0
   -2.3548    2.9970  -10.0555 Br  0  0  0  0  0  0  0  0  0  0  0  0
   -4.8087    2.9235   -8.5899 C   0  0  0  0  0  0  0  0  0  0  0  0
   -5.3865    2.8796   -7.3651 N   0  0  0  0  0  0  0  0  0  0  0  0
   -0.8492    0.3980    7.1572 H   0  0  0  0  0  0  0  0  0  0  0  0
    0.2665    0.8732    5.8640 H   0  0  0  0  0  0  0  0  0  0  0  0
    0.9878    1.4982    8.1710 H   0  0  0  0  0  0  0  0  0  0  0  0
    1.0973    2.7637    6.9278 H   0  0  0  0  0  0  0  0  0  0  0  0
   -0.7864    2.4788    9.3190 H   0  0  0  0  0  0  0  0  0  0  0  0
   -1.3355    4.5862    7.1586 H   0  0  0  0  0  0  0  0  0  0  0  0
   -2.2964    4.0597    8.5519 H   0  0  0  0  0  0  0  0  0  0  0  0
   -2.9547    2.0082    7.5924 H   0  0  0  0  0  0  0  0  0  0  0  0
   -3.1802    3.3104    6.3659 H   0  0  0  0  0  0  0  0  0  0  0  0
    2.2419    3.0176    8.8502 H   0  0  0  0  0  0  0  0  0  0  0  0
    0.3739    7.4412    8.7980 H   0  0  0  0  0  0  0  0  0  0  0  0
   -2.3033    2.7115    1.6333 H   0  0  0  0  0  0  0  0  0  0  0  0
   -3.3193    2.8510    3.0770 H   0  0  0  0  0  0  0  0  0  0  0  0
   -2.7671    0.4447    1.2426 H   0  0  0  0  0  0  0  0  0  0  0  0
   -3.5868    0.1843    2.7907 H   0  0  0  0  0  0  0  0  0  0  0  0
   -5.3445    1.5021    2.1345 H   0  0  0  0  0  0  0  0  0  0  0  0
   -5.8063   -0.5467    1.5711 H   0  0  0  0  0  0  0  0  0  0  0  0
   -4.2743   -0.7330    0.6798 H   0  0  0  0  0  0  0  0  0  0  0  0
   -5.9929    1.2183   -0.6224 H   0  0  0  0  0  0  0  0  0  0  0  0
   -6.8693   -0.3054   -0.4019 H   0  0  0  0  0  0  0  0  0  0  0  0
   -5.3282   -1.5467   -1.4774 H   0  0  0  0  0  0  0  0  0  0  0  0
   -3.2391   -1.0482   -1.1348 H   0  0  0  0  0  0  0  0  0  0  0  0
   -3.5841    0.6897   -1.1291 H   0  0  0  0  0  0  0  0  0  0  0  0
   -1.1571   -0.4046   -3.5609 H   0  0  0  0  0  0  0  0  0  0  0  0
   -1.8389    1.1824   -3.9323 H   0  0  0  0  0  0  0  0  0  0  0  0
   -1.8742    1.6913   -1.5915 H   0  0  0  0  0  0  0  0  0  0  0  0
   -0.1229    2.1251   -2.9677 H   0  0  0  0  0  0  0  0  0  0  0  0
    0.5863    0.5227   -2.7183 H   0  0  0  0  0  0  0  0  0  0  0  0
    0.4073    2.8719   -0.9104 H   0  0  0  0  0  0  0  0  0  0  0  0
    0.1025    1.3083   -0.1134 H   0  0  0  0  0  0  0  0  0  0  0  0
    2.6739    2.1489   -1.2631 H   0  0  0  0  0  0  0  0  0  0  0  0
    1.7966    1.2984    1.2189 H   0  0  0  0  0  0  0  0  0  0  0  0
    2.2791   -0.1668    0.3729 H   0  0  0  0  0  0  0  0  0  0  0  0
    4.1979    3.1822   -0.3969 H   0  0  0  0  0  0  0  0  0  0  0  0
    4.6655    3.2447    1.3058 H   0  0  0  0  0  0  0  0  0  0  0  0
    2.5701    4.3626    0.5705 H   0  0  0  0  0  0  0  0  0  0  0  0
    2.5154    2.6862    3.0263 H   0  0  0  0  0  0  0  0  0  0  0  0
    3.2296    4.3291    2.7725 H   0  0  0  0  0  0  0  0  0  0  0  0
    1.0843    4.5745    3.7531 H   0  0  0  0  0  0  0  0  0  0  0  0
    1.0590    5.1745    2.0846 H   0  0  0  0  0  0  0  0  0  0  0  0
   -0.6058    3.8294    1.7396 H   0  0  0  0  0  0  0  0  0  0  0  0
    0.0439    2.8629    4.4708 H   0  0  0  0  0  0  0  0  0  0  0  0
   -1.3892    3.8102    3.9241 H   0  0  0  0  0  0  0  0  0  0  0  0
    5.7730    0.6471    0.0555 H   0  0  0  0  0  0  0  0  0  0  0  0
    4.6862    1.2778   -1.2394 H   0  0  0  0  0  0  0  0  0  0  0  0
    3.9890   -1.2324    0.1662 H   0  0  0  0  0  0  0  0  0  0  0  0
    5.7791   -0.8052   -2.1185 H   0  0  0  0  0  0  0  0  0  0  0  0
    5.8462   -1.9934   -0.7810 H   0  0  0  0  0  0  0  0  0  0  0  0
    5.1387   -3.2138   -2.6637 H   0  0  0  0  0  0  0  0  0  0  0  0
    4.1266   -1.8663   -3.2322 H   0  0  0  0  0  0  0  0  0  0  0  0
    3.7231   -3.3782   -0.7045 H   0  0  0  0  0  0  0  0  0  0  0  0
    2.4237   -4.8916   -1.5636 H   0  0  0  0  0  0  0  0  0  0  0  0
    3.1453   -4.3859   -3.1025 H   0  0  0  0  0  0  0  0  0  0  0  0
   -0.0803   -1.8868   -1.9442 H   0  0  0  0  0  0  0  0  0  0  0  0
    1.6589   -1.6892   -1.7931 H   0  0  0  0  0  0  0  0  0  0  0  0
    1.7023   -2.5879    0.3182 H   0  0  0  0  0  0  0  0  0  0  0  0
    0.6119   -3.9120   -0.0774 H   0  0  0  0  0  0  0  0  0  0  0  0
   -0.2001   -1.0696    0.0901 H   0  0  0  0  0  0  0  0  0  0  0  0
    0.7374   -1.1327    2.0679 H   0  0  0  0  0  0  0  0  0  0  0  0
    0.6386   -2.9259    2.1250 H   0  0  0  0  0  0  0  0  0  0  0  0
   -2.0300   -1.8704    2.1328 H   0  0  0  0  0  0  0  0  0  0  0  0
   -1.1802   -2.7069    3.4387 H   0  0  0  0  0  0  0  0  0  0  0  0
   -1.8857   -0.6495    4.2537 H   0  0  0  0  0  0  0  0  0  0  0  0
    0.3078    0.7941    3.1756 H   0  0  0  0  0  0  0  0  0  0  0  0
   -0.8373    0.4031    1.8839 H   0  0  0  0  0  0  0  0  0  0  0  0
    0.5288   -5.5206   -2.3178 H   0  0  0  0  0  0  0  0  0  0  0  0
   -1.6327   -5.3694   -2.5049 H   0  0  0  0  0  0  0  0  0  0  0  0
   -1.3648   -4.0471   -1.3979 H   0  0  0  0  0  0  0  0  0  0  0  0
   -2.4633   -4.0463   -4.1169 H   0  0  0  0  0  0  0  0  0  0  0  0
   -1.2658   -2.7670   -3.9227 H   0  0  0  0  0  0  0  0  0  0  0  0
   -3.6420   -3.2351   -2.2606 H   0  0  0  0  0  0  0  0  0  0  0  0
   -2.8245   -1.7507   -4.6086 H   0  0  0  0  0  0  0  0  0  0  0  0
   -4.4173   -1.8739   -3.8270 H   0  0  0  0  0  0  0  0  0  0  0  0
    2.6559   -3.1205   -6.8105 H   0  0  0  0  0  0  0  0  0  0  0  0
    3.6358   -2.8014   -5.3710 H   0  0  0  0  0  0  0  0  0  0  0  0
    3.9142   -4.9559   -7.2611 H   0  0  0  0  0  0  0  0  0  0  0  0
    4.6964   -4.9239   -5.6560 H   0  0  0  0  0  0  0  0  0  0  0  0
    2.6756   -6.1074   -4.7083 H   0  0  0  0  0  0  0  0  0  0  0  0
    1.7113   -5.6823   -7.5814 H   0  0  0  0  0  0  0  0  0  0  0  0
    0.8855   -6.7615   -6.4463 H   0  0  0  0  0  0  0  0  0  0  0  0
    0.4830   -4.0074   -6.6937 H   0  0  0  0  0  0  0  0  0  0  0  0
    0.0270   -5.0600   -5.2535 H   0  0  0  0  0  0  0  0  0  0  0  0
    1.9459   -8.4814   -6.6838 H   0  0  0  0  0  0  0  0  0  0  0  0
    6.5941   -8.5678   -5.5290 H   0  0  0  0  0  0  0  0  0  0  0  0
    3.2506    0.6384    4.3092 H   0  0  0  0  0  0  0  0  0  0  0  0
    2.4659   -0.8626    3.6980 H   0  0  0  0  0  0  0  0  0  0  0  0
    5.0098   -0.6290    5.3634 H   0  0  0  0  0  0  0  0  0  0  0  0
    3.3882   -1.3523    5.7389 H   0  0  0  0  0  0  0  0  0  0  0  0
    5.2118   -2.9890    5.1693 H   0  0  0  0  0  0  0  0  0  0  0  0
    6.2103   -3.0037    3.1143 H   0  0  0  0  0  0  0  0  0  0  0  0
    4.6231   -2.7680    2.2237 H   0  0  0  0  0  0  0  0  0  0  0  0
    6.1248   -0.9277    1.8951 H   0  0  0  0  0  0  0  0  0  0  0  0
    6.1403   -0.5305    3.6644 H   0  0  0  0  0  0  0  0  0  0  0  0
    3.9245   -4.6196    2.7106 H   0  0  0  0  0  0  0  0  0  0  0  0
    0.8019   -4.1646    6.3760 H   0  0  0  0  0  0  0  0  0  0  0  0
   -5.6625    3.1117   -2.5183 H   0  0  0  0  0  0  0  0  0  0  0  0
   -3.8834    2.7117   -2.3847 H   0  0  0  0  0  0  0  0  0  0  0  0
   -4.1197    4.7215   -3.6912 H   0  0  0  0  0  0  0  0  0  0  0  0
   -3.4985    3.3739   -4.6617 H   0  0  0  0  0  0  0  0  0  0  0  0
   -5.9856    4.9225   -4.9553 H   0  0  0  0  0  0  0  0  0  0  0  0
   -7.3762    3.3609   -4.0228 H   0  0  0  0  0  0  0  0  0  0  0  0
   -7.3518    2.9060   -5.7352 H   0  0  0  0  0  0  0  0  0  0  0  0
   -7.1532    1.0703   -3.9439 H   0  0  0  0  0  0  0  0  0  0  0  0
   -6.1920    0.9900   -5.4313 H   0  0  0  0  0  0  0  0  0  0  0  0
   -3.6512    5.3875   -6.0294 H   0  0  0  0  0  0  0  0  0  0  0  0
   -5.2738    2.4839   -9.4714 H   0  0  0  0  0  0  0  0  0  0  0  0
  1  2  2  0
  2  3  1  0
  3  4  1  0
  4  5  1  0
  5  6  1  0
  6  7  1  0
  7  8  1  0
  6  9  1  0
  9 10  2  0
 10 11  1  0
 11 12  2  0
 12 13  1  0
 12 14  1  0
 14 15  2  0
  2 16  1  0
 16 17  1  0
 17 18  1  0
 18 19  1  0
 19 20  1  0
 20 21  1  0
 21 22  1  0
 22 23  1  0
 23 24  1  0
 24 25  1  0
 25 26  1  0
 26 27  1  0
 27 28  1  0
 28 29  1  0
 29 30  1  0
 30 31  1  0
 31 32  1  0
 32 33  1  0
 33 34  1  0
 34 35  1  0
 35 36  1  0
 36 37  1  0
 31 38  1  0
 38 39  1  0
 39 40  1  0
 40 41  1  0
 41 42  1  0
 42 43  1  0
 43 44  1  0
 44 45  1  0
 45 46  1  0
 46 47  1  0
 47 48  1  0
 48 49  1  0
 49 50  1  0
 50 51  1  0
 44 52  1  0
 52 53  1  0
 53 54  1  0
 54 55  1  0
 55 56  1  0
 44 57  1  0
 57 58  2  0
 57 59  1  0
 59 60  1  0
 60 61  1  0
 61 62  1  0
 62 63  1  0
 63 64  1  0
 62 65  1  0
 65 66  2  0
 66 67  1  0
 67 68  2  0
 68 69  1  0
 68 70  1  0
 70 71  2  0
 31 72  1  0
 72 73  2  0
 72 74  1  0
 74 75  1  0
 75 76  1  0
 76 77  1  0
 77 78  1  0
 78 79  1  0
 77 80  1  0
 80 81  2  0
 81 82  1  0
 82 83  2  0
 83 84  1  0
 83 85  1  0
 85 86  2  0
 24 87  1  0
 87 88  2  0
 87 89  1  0
 89 90  1  0
 90 91  1  0
 91 92  1  0
 92 93  1  0
 93 94  1  0
 92 95  1  0
 95 96  2  0
 96 97  1  0
 97 98  2  0
 98 99  1  0
 98100  1  0
100101  2  0
  8  3  1  0
 15  9  1  0
 37 16  1  0
 64 59  1  0
 71 65  1  0
 79 74  1  0
 86 80  1  0
 94 89  1  0
101 95  1  0
 51 16  1  0
 56 24  1  0
  4102  1  0
  4103  1  0
  5104  1  0
  5105  1  0
  6106  1  0
  7107  1  0
  7108  1  0
  8109  1  0
  8110  1  0
 10111  1  0
 14112  1  0
 17113  1  0
 17114  1  0
 18115  1  0
 18116  1  0
 19117  1  0
 20118  1  0
 20119  1  0
 21120  1  0
 21121  1  0
 22122  1  0
 23123  1  0
 23124  1  0
 25125  1  0
 25126  1  0
 26127  1  0
 27128  1  0
 27129  1  0
 28130  1  0
 28131  1  0
 29132  1  0
 30133  1  0
 30134  1  0
 32135  1  0
 32136  1  0
 33137  1  0
 34138  1  0
 34139  1  0
 35140  1  0
 35141  1  0
 36142  1  0
 37143  1  0
 37144  1  0
 38145  1  0
 38146  1  0
 39147  1  0
 40148  1  0
 40149  1  0
 41150  1  0
 41151  1  0
 42152  1  0
 43153  1  0
 43154  1  0
 45155  1  0
 45156  1  0
 46157  1  0
 46158  1  0
 47159  1  0
 48160  1  0
 48161  1  0
 49162  1  0
 49163  1  0
 50164  1  0
 51165  1  0
 51166  1  0
 52167  1  0
 53168  1  0
 53169  1  0
 54170  1  0
 54171  1  0
 55172  1  0
 56173  1  0
 56174  1  0
 60175  1  0
 60176  1  0
 61177  1  0
 61178  1  0
 62179  1  0
 63180  1  0
 63181  1  0
 64182  1  0
 64183  1  0
 66184  1  0
 70185  1  0
 75186  1  0
 75187  1  0
 76188  1  0
 76189  1  0
 77190  1  0
 78191  1  0
 78192  1  0
 79193  1  0
 79194  1  0
 81195  1  0
 85196  1  0
 90197  1  0
 90198  1  0
 91199  1  0
 91200  1  0
 92201  1  0
 93202  1  0
 93203  1  0
 94204  1  0
 94205  1  0
 96206  1  0
100207  1  0
M  END
