
     RDKit          3D

207217  0  0  0  0  0  0  0  0999 V2000
   -0.3206    5.2215   -3.8010 O   0  0  0  0  0  0  0  0  0  0  0  0
   -1.0022    5.4452   -2.6573 S   0  0  0  0  0  0  0  0  0  0  0  0
   -0.5770    6.7750   -2.0800 O   0  0  0  0  0  0  0  0  0  0  0  0
   -0.6933    4.2653   -1.4113 N   0  0  0  0  0  0  0  0  0  0  0  0
   -1.4945    3.1105   -1.8230 C   0  0  0  0  0  0  0  0  0  0  0  0
   -0.9381    2.4163   -3.0159 C   0  0  0  0  0  0  0  0  0  0  0  0
   -1.0159    0.9827   -2.9937 N   0  0  0  0  0  0  0  0  0  0  0  0
   -0.1734    0.3157   -3.9157 C   0  0  0  0  0  0  0  0  0  0  0  0
    0.3715   -1.0142   -3.5419 C   0  0  0  0  0  0  0  0  0  0  0  0
   -0.2933   -1.7118   -2.5071 N   0  0  0  0  0  0  0  0  0  0  0  0
    0.4307   -2.6900   -1.7851 C   0  0  0  0  0  0  0  0  0  0  0  0
    1.7869   -2.4256   -1.4617 N   0  0  0  0  0  0  0  0  0  0  0  0
    2.1306   -2.4980   -0.0676 C   0  0  0  0  0  0  0  0  0  0  0  0
    3.3233   -1.7068    0.2118 N   0  0  0  0  0  0  0  0  0  0  0  0
    3.5795   -1.6019    1.6433 C   0  0  0  0  0  0  0  0  0  0  0  0
    4.4592   -0.4319    1.9864 C   0  0  0  0  0  0  0  0  0  0  0  0
    4.0399    0.3296    3.1231 N   0  0  0  0  0  0  0  0  0  0  0  0
    4.3814    1.6970    3.0547 N   0  0  0  0  0  0  0  0  0  0  0  0
    3.4354    2.4170    3.8579 C   0  0  0  0  0  0  0  0  0  0  0  0
    3.2946    3.8700    3.5975 C   0  0  0  0  0  0  0  0  0  0  0  0
    2.5290    4.2792    2.4885 N   0  0  0  0  0  0  0  0  0  0  0  0
    1.2098    4.7870    2.7444 C   0  0  0  0  0  0  0  0  0  0  0  0
    0.5783    5.2748    1.4696 C   0  0  0  0  0  0  0  0  0  0  0  0
   -0.4999    4.4426    1.0071 N   0  0  0  0  0  0  0  0  0  0  0  0
   -1.1278    4.8535   -0.1887 C   0  0  0  0  0  0  0  0  0  0  0  0
    6.0234    1.9734    3.5279 S   0  0  0  0  0  0  0  0  0  0  0  0
    6.5071    0.6830    4.1534 O   0  0  0  0  0  0  0  0  0  0  0  0
    6.1312    3.0160    4.6037 O   0  0  0  0  0  0  0  0  0  0  0  0
    6.9507    2.2867    2.1648 N   0  0  0  0  0  0  0  0  0  0  0  0
    7.8128    1.2360    1.7153 C   0  0  0  0  0  0  0  0  0  0  0  0
    7.8194    1.4015    0.1995 C   0  0  0  0  0  0  0  0  0  0  0  0
    8.4639    2.7365   -0.0548 C   0  0  0  0  0  0  0  0  0  0  0  0
    7.8780    3.8819    0.6853 C   0  0  0  0  0  0  0  0  0  0  0  0
    7.7299    3.4902    2.1552 C   0  0  0  0  0  0  0  0  0  0  0  0
    6.5301    4.2925    0.2671 C   0  0  0  0  0  0  0  0  0  0  0  0
    7.4026    4.6778   -0.7177 C   0  0  0  0  0  0  0  0  0  0  0  0
    6.8873    4.7346   -2.0068 C   0  0  0  0  0  0  0  0  0  0  0  0
    7.9687    5.0474   -3.3326 Cl  0  0  0  0  0  0  0  0  0  0  0  0
    5.6941    4.1179   -2.2047 N   0  0  0  0  0  0  0  0  0  0  0  0
    4.7956    4.0733   -1.1904 C   0  0  0  0  0  0  0  0  0  0  0  0
    4.4133    3.0455   -2.2104 C   0  0  0  0  0  0  0  0  0  0  0  0
    4.0581    1.7791   -1.5704 N   0  0  0  0  0  0  0  0  0  0  0  0
    2.6339    1.5550   -1.5466 C   0  0  0  0  0  0  0  0  0  0  0  0
    1.9924    1.8532   -0.2199 C   0  0  0  0  0  0  0  0  0  0  0  0
    0.8864    1.0498    0.1178 N   0  0  0  0  0  0  0  0  0  0  0  0
    0.5143    0.8755    1.4572 C   0  0  0  0  0  0  0  0  0  0  0  0
   -0.9296    0.8516    1.6810 N   0  0  0  0  0  0  0  0  0  0  0  0
   -1.5973   -0.2184    1.0035 C   0  0  0  0  0  0  0  0  0  0  0  0
   -2.8966    0.2198    0.6071 N   0  0  0  0  0  0  0  0  0  0  0  0
   -3.5529   -0.5676   -0.3807 C   0  0  0  0  0  0  0  0  0  0  0  0
   -4.5581    0.3033   -1.1239 C   0  0  0  0  0  0  0  0  0  0  0  0
   -4.7545   -0.1330   -2.4824 N   0  0  0  0  0  0  0  0  0  0  0  0
   -5.7377    0.7120   -3.1034 C   0  0  0  0  0  0  0  0  0  0  0  0
   -5.1117    1.4194   -4.2640 C   0  0  0  0  0  0  0  0  0  0  0  0
   -6.3769    1.8717   -4.0857 N   0  0  0  0  0  0  0  0  0  0  0  0
   -6.7854    3.0379   -4.6436 C   0  0  0  0  0  0  0  0  0  0  0  0
   -8.4569    3.5230   -4.7101 Cl  0  0  0  0  0  0  0  0  0  0  0  0
   -5.7986    3.9898   -4.8284 C   0  0  0  0  0  0  0  0  0  0  0  0
   -4.4802    3.5531   -4.7836 C   0  0  0  0  0  0  0  0  0  0  0  0
   -4.3138    2.2256   -5.0066 N   0  0  0  0  0  0  0  0  0  0  0  0
   -4.5692    4.9787   -4.3370 C   0  0  0  0  0  0  0  0  0  0  0  0
   -5.1755    5.1086   -2.9668 C   0  0  0  0  0  0  0  0  0  0  0  0
   -4.8244    6.4865   -2.4177 C   0  0  0  0  0  0  0  0  0  0  0  0
   -3.3227    6.6186   -2.1921 C   0  0  0  0  0  0  0  0  0  0  0  0
   -2.7052    5.4985   -2.8529 N   0  0  0  0  0  0  0  0  0  0  0  0
   -3.1298    5.4696   -4.2274 C   0  0  0  0  0  0  0  0  0  0  0  0
   -1.3809    0.9525    3.3153 S   0  0  0  0  0  0  0  0  0  0  0  0
   -0.3396    1.5307    4.2101 O   0  0  0  0  0  0  0  0  0  0  0  0
   -2.5543    1.9088    3.3854 O   0  0  0  0  0  0  0  0  0  0  0  0
   -1.9464   -0.5560    3.9668 N   0  0  0  0  0  0  0  0  0  0  0  0
   -1.3042   -0.7432    5.2658 C   0  0  0  0  0  0  0  0  0  0  0  0
   -1.7695   -1.9630    5.9896 C   0  0  0  0  0  0  0  0  0  0  0  0
   -3.2890   -2.0608    6.0705 C   0  0  0  0  0  0  0  0  0  0  0  0
   -3.7526   -1.9525    4.6252 C   0  0  0  0  0  0  0  0  0  0  0  0
   -3.3608   -0.5331    4.2265 C   0  0  0  0  0  0  0  0  0  0  0  0
   -5.2117   -2.1314    4.5691 C   0  0  0  0  0  0  0  0  0  0  0  0
   -4.5551   -3.3514    4.6104 C   0  0  0  0  0  0  0  0  0  0  0  0
   -5.3591   -4.4837    4.5586 C   0  0  0  0  0  0  0  0  0  0  0  0
   -4.7569   -5.9630    5.2553 Cl  0  0  0  0  0  0  0  0  0  0  0  0
   -6.4790   -4.4228    3.7967 N   0  0  0  0  0  0  0  0  0  0  0  0
   -6.9640   -3.1997    3.4689 C   0  0  0  0  0  0  0  0  0  0  0  0
   -7.1471   -4.1443    2.3237 C   0  0  0  0  0  0  0  0  0  0  0  0
   -6.0685   -5.0904    2.2107 N   0  0  0  0  0  0  0  0  0  0  0  0
   -5.1988   -4.8093    1.0723 C   0  0  0  0  0  0  0  0  0  0  0  0
   -4.4079   -6.0197    0.6588 C   0  0  0  0  0  0  0  0  0  0  0  0
   -3.2969   -6.2839    1.5419 N   0  0  0  0  0  0  0  0  0  0  0  0
   -2.0208   -5.8909    0.9808 C   0  0  0  0  0  0  0  0  0  0  0  0
   -1.1311   -7.0792    0.8772 C   0  0  0  0  0  0  0  0  0  0  0  0
   -0.6268   -6.2246    1.7861 N   0  0  0  0  0  0  0  0  0  0  0  0
    0.7020   -6.2046    2.0513 C   0  0  0  0  0  0  0  0  0  0  0  0
    1.4109   -5.0272    3.1491 Cl  0  0  0  0  0  0  0  0  0  0  0  0
    1.5179   -6.7261    1.0598 C   0  0  0  0  0  0  0  0  0  0  0  0
    0.9730   -7.6389    0.1660 C   0  0  0  0  0  0  0  0  0  0  0  0
   -0.2876   -8.0481    0.4459 N   0  0  0  0  0  0  0  0  0  0  0  0
    2.1952   -6.9681   -0.3684 C   0  0  0  0  0  0  0  0  0  0  0  0
    3.0096   -7.9053   -1.2287 C   0  0  0  0  0  0  0  0  0  0  0  0
    4.2659   -7.1341   -1.6164 C   0  0  0  0  0  0  0  0  0  0  0  0
    3.9355   -5.8174   -2.2544 C   0  0  0  0  0  0  0  0  0  0  0  0
    3.0323   -5.0077   -1.4395 N   0  0  0  0  0  0  0  0  0  0  0  0
    1.8308   -5.7768   -1.2468 C   0  0  0  0  0  0  0  0  0  0  0  0
    2.7769   -3.5509   -2.3089 S   0  0  0  0  0  0  0  0  0  0  0  0
    4.1082   -2.9679   -2.6432 O   0  0  0  0  0  0  0  0  0  0  0  0
    2.0604   -3.9144   -3.5903 O   0  0  0  0  0  0  0  0  0  0  0  0
   -6.4936   -2.1517    4.1910 N   0  0  0  0  0  0  0  0  0  0  0  0
    5.2286    4.5722   -0.0043 N   0  0  0  0  0  0  0  0  0  0  0  0
   -1.5906    2.4836   -0.9271 H   0  0  0  0  0  0  0  0  0  0  0  0
   -2.5135    3.5267   -2.0269 H   0  0  0  0  0  0  0  0  0  0  0  0
    0.0811    2.8102   -3.2008 H   0  0  0  0  0  0  0  0  0  0  0  0
   -1.5333    2.7525   -3.9037 H   0  0  0  0  0  0  0  0  0  0  0  0
   -1.1426    0.5542   -2.0720 H   0  0  0  0  0  0  0  0  0  0  0  0
   -0.7185    0.2847   -4.8946 H   0  0  0  0  0  0  0  0  0  0  0  0
    0.7018    0.9860   -4.1173 H   0  0  0  0  0  0  0  0  0  0  0  0
    1.4659   -1.0064   -3.3029 H   0  0  0  0  0  0  0  0  0  0  0  0
    0.3111   -1.6612   -4.4568 H   0  0  0  0  0  0  0  0  0  0  0  0
   -1.1716   -2.1328   -2.8545 H   0  0  0  0  0  0  0  0  0  0  0  0
   -0.1136   -2.8715   -0.8227 H   0  0  0  0  0  0  0  0  0  0  0  0
    0.3216   -3.6537   -2.3465 H   0  0  0  0  0  0  0  0  0  0  0  0
    1.3111   -2.0679    0.5618 H   0  0  0  0  0  0  0  0  0  0  0  0
    2.3443   -3.5117    0.2982 H   0  0  0  0  0  0  0  0  0  0  0  0
    4.1360   -2.1837   -0.2340 H   0  0  0  0  0  0  0  0  0  0  0  0
    4.0631   -2.5799    1.9050 H   0  0  0  0  0  0  0  0  0  0  0  0
    2.6300   -1.6193    2.2355 H   0  0  0  0  0  0  0  0  0  0  0  0
    4.6054    0.1560    1.0703 H   0  0  0  0  0  0  0  0  0  0  0  0
    5.4614   -0.8618    2.2400 H   0  0  0  0  0  0  0  0  0  0  0  0
    4.5107   -0.0209    3.9992 H   0  0  0  0  0  0  0  0  0  0  0  0
    3.7821    2.3063    4.9183 H   0  0  0  0  0  0  0  0  0  0  0  0
    2.4801    1.8795    3.8084 H   0  0  0  0  0  0  0  0  0  0  0  0
    2.8552    4.3359    4.5168 H   0  0  0  0  0  0  0  0  0  0  0  0
    4.3277    4.2989    3.5389 H   0  0  0  0  0  0  0  0  0  0  0  0
    3.0278    5.0678    1.9958 H   0  0  0  0  0  0  0  0  0  0  0  0
    0.5575    4.1088    3.3073 H   0  0  0  0  0  0  0  0  0  0  0  0
    1.3428    5.6908    3.3929 H   0  0  0  0  0  0  0  0  0  0  0  0
    1.3544    5.2717    0.6630 H   0  0  0  0  0  0  0  0  0  0  0  0
    0.2225    6.3335    1.5461 H   0  0  0  0  0  0  0  0  0  0  0  0
   -1.1493    4.2720    1.8198 H   0  0  0  0  0  0  0  0  0  0  0  0
   -2.2258    4.6549   -0.0947 H   0  0  0  0  0  0  0  0  0  0  0  0
   -1.0403    5.9683   -0.2508 H   0  0  0  0  0  0  0  0  0  0  0  0
    7.5612    0.2312    2.0439 H   0  0  0  0  0  0  0  0  0  0  0  0
    8.8524    1.4539    2.0466 H   0  0  0  0  0  0  0  0  0  0  0  0
    6.7899    1.3247   -0.2129 H   0  0  0  0  0  0  0  0  0  0  0  0
    8.4621    0.6194   -0.2282 H   0  0  0  0  0  0  0  0  0  0  0  0
    9.5192    2.6327    0.3095 H   0  0  0  0  0  0  0  0  0  0  0  0
    8.5386    2.8445   -1.1406 H   0  0  0  0  0  0  0  0  0  0  0  0
    8.5673    4.7366    0.6089 H   0  0  0  0  0  0  0  0  0  0  0  0
    7.1936    4.3400    2.6331 H   0  0  0  0  0  0  0  0  0  0  0  0
    8.7524    3.3797    2.5429 H   0  0  0  0  0  0  0  0  0  0  0  0
    8.4362    4.7533   -0.4669 H   0  0  0  0  0  0  0  0  0  0  0  0
    5.1929    2.9211   -2.9778 H   0  0  0  0  0  0  0  0  0  0  0  0
    3.4754    3.4097   -2.6890 H   0  0  0  0  0  0  0  0  0  0  0  0
    4.3819    1.8604   -0.5915 H   0  0  0  0  0  0  0  0  0  0  0  0
    2.4793    0.4901   -1.7530 H   0  0  0  0  0  0  0  0  0  0  0  0
    2.2128    2.1240   -2.3875 H   0  0  0  0  0  0  0  0  0  0  0  0
    1.7885    2.9547   -0.2564 H   0  0  0  0  0  0  0  0  0  0  0  0
    2.7746    1.7415    0.5402 H   0  0  0  0  0  0  0  0  0  0  0  0
    0.7489    0.2746   -0.5349 H   0  0  0  0  0  0  0  0  0  0  0  0
    0.8771    1.7567    2.0409 H   0  0  0  0  0  0  0  0  0  0  0  0
    0.8979   -0.0117    1.9775 H   0  0  0  0  0  0  0  0  0  0  0  0
   -0.9499   -0.5764    0.1995 H   0  0  0  0  0  0  0  0  0  0  0  0
   -1.7261   -1.0563    1.7341 H   0  0  0  0  0  0  0  0  0  0  0  0
   -3.0244    1.2397    0.5340 H   0  0  0  0  0  0  0  0  0  0  0  0
   -4.1547   -1.3742    0.1047 H   0  0  0  0  0  0  0  0  0  0  0  0
   -2.9015   -1.0621   -1.1095 H   0  0  0  0  0  0  0  0  0  0  0  0
   -4.2560    1.3606   -1.1498 H   0  0  0  0  0  0  0  0  0  0  0  0
   -5.5554    0.2707   -0.6213 H   0  0  0  0  0  0  0  0  0  0  0  0
   -3.8683   -0.1324   -3.0270 H   0  0  0  0  0  0  0  0  0  0  0  0
   -6.2044    1.4324   -2.4022 H   0  0  0  0  0  0  0  0  0  0  0  0
   -6.5882    0.1307   -3.5416 H   0  0  0  0  0  0  0  0  0  0  0  0
   -5.9791    5.0356   -4.9670 H   0  0  0  0  0  0  0  0  0  0  0  0
   -5.0865    5.5656   -5.1124 H   0  0  0  0  0  0  0  0  0  0  0  0
   -6.2720    5.0427   -2.9507 H   0  0  0  0  0  0  0  0  0  0  0  0
   -4.7894    4.3038   -2.3245 H   0  0  0  0  0  0  0  0  0  0  0  0
   -5.3965    6.5949   -1.4765 H   0  0  0  0  0  0  0  0  0  0  0  0
   -5.1821    7.2411   -3.1371 H   0  0  0  0  0  0  0  0  0  0  0  0
   -2.9491    7.6010   -2.5764 H   0  0  0  0  0  0  0  0  0  0  0  0
   -3.1778    6.6340   -1.1020 H   0  0  0  0  0  0  0  0  0  0  0  0
   -2.4300    4.8583   -4.8159 H   0  0  0  0  0  0  0  0  0  0  0  0
   -3.0708    6.5230   -4.6013 H   0  0  0  0  0  0  0  0  0  0  0  0
   -0.2107   -0.7933    5.1822 H   0  0  0  0  0  0  0  0  0  0  0  0
   -1.6126    0.1437    5.8751 H   0  0  0  0  0  0  0  0  0  0  0  0
   -1.3479   -2.9052    5.6113 H   0  0  0  0  0  0  0  0  0  0  0  0
   -1.4279   -1.8661    7.0464 H   0  0  0  0  0  0  0  0  0  0  0  0
   -3.5558   -3.0136    6.5412 H   0  0  0  0  0  0  0  0  0  0  0  0
   -3.6981   -1.1821    6.5966 H   0  0  0  0  0  0  0  0  0  0  0  0
   -3.2211   -2.7092    4.0289 H   0  0  0  0  0  0  0  0  0  0  0  0
   -3.9886   -0.2566    3.3772 H   0  0  0  0  0  0  0  0  0  0  0  0
   -3.5852    0.1386    5.0839 H   0  0  0  0  0  0  0  0  0  0  0  0
   -3.4684   -3.4379    4.5529 H   0  0  0  0  0  0  0  0  0  0  0  0
   -7.2576   -3.6287    1.3603 H   0  0  0  0  0  0  0  0  0  0  0  0
   -8.0845   -4.7086    2.5595 H   0  0  0  0  0  0  0  0  0  0  0  0
   -6.4185   -6.0738    2.0607 H   0  0  0  0  0  0  0  0  0  0  0  0
   -5.7288   -4.3265    0.2395 H   0  0  0  0  0  0  0  0  0  0  0  0
   -4.4575   -4.0605    1.4513 H   0  0  0  0  0  0  0  0  0  0  0  0
   -3.9664   -5.7841   -0.3419 H   0  0  0  0  0  0  0  0  0  0  0  0
   -5.0257   -6.9299    0.6131 H   0  0  0  0  0  0  0  0  0  0  0  0
   -3.4392   -5.7127    2.3928 H   0  0  0  0  0  0  0  0  0  0  0  0
   -2.1802   -5.3856    0.0165 H   0  0  0  0  0  0  0  0  0  0  0  0
   -1.4878   -5.1513    1.6306 H   0  0  0  0  0  0  0  0  0  0  0  0
    2.5148   -6.3862    0.8604 H   0  0  0  0  0  0  0  0  0  0  0  0
    2.8269   -6.6771    0.4887 H   0  0  0  0  0  0  0  0  0  0  0  0
    2.4620   -8.2398   -2.1282 H   0  0  0  0  0  0  0  0  0  0  0  0
    3.3327   -8.7937   -0.6535 H   0  0  0  0  0  0  0  0  0  0  0  0
    4.7765   -7.7511   -2.3777 H   0  0  0  0  0  0  0  0  0  0  0  0
    4.9071   -7.0599   -0.7270 H   0  0  0  0  0  0  0  0  0  0  0  0
    3.5444   -5.9886   -3.2675 H   0  0  0  0  0  0  0  0  0  0  0  0
    4.8853   -5.2350   -2.3155 H   0  0  0  0  0  0  0  0  0  0  0  0
    1.0331   -5.2435   -0.7085 H   0  0  0  0  0  0  0  0  0  0  0  0
    1.4582   -6.1999   -2.1983 H   0  0  0  0  0  0  0  0  0  0  0  0
  1  2  2  0
  2  3  2  0
  2  4  1  0
  4  5  1  0
  5  6  1  0
  6  7  1  0
  7  8  1  0
  8  9  1  0
  9 10  1  0
 10 11  1  0
 11 12  1  0
 12 13  1  0
 13 14  1  0
 14 15  1  0
 15 16  1  0
 16 17  1  0
 17 18  1  0
 18 19  1  0
 19 20  1  0
 20 21  1  0
 21 22  1  0
 22 23  1  0
 23 24  1  0
 24 25  1  0
 18 26  1  0
 26 27  2  0
 26 28  2  0
 26 29  1  0
 29 30  1  0
 30 31  1  0
 31 32  1  0
 32 33  1  0
 33 34  1  0
 33 35  1  0
 35 36  1  0
 36 37  2  0
 37 38  1  0
 37 39  1  0
 39 40  2  0
 40 41  1  0
 41 42  1  0
 42 43  1  0
 43 44  1  0
 44 45  1  0
 45 46  1  0
 46 47  1  0
 47 48  1  0
 48 49  1  0
 49 50  1  0
 50 51  1  0
 51 52  1  0
 52 53  1  0
 53 54  1  0
 54 55  1  0
 55 56  2  0
 56 57  1  0
 56 58  1  0
 58 59  2  0
 59 60  1  0
 59 61  1  0
 61 62  1  0
 62 63  1  0
 63 64  1  0
 64 65  1  0
 65 66  1  0
 47 67  1  0
 67 68  2  0
 67 69  2  0
 67 70  1  0
 70 71  1  0
 71 72  1  0
 72 73  1  0
 73 74  1  0
 74 75  1  0
 74 76  1  0
 76 77  1  0
 77 78  2  0
 78 79  1  0
 78 80  1  0
 80 81  2  0
 81 82  1  0
 82 83  1  0
 83 84  1  0
 84 85  1  0
 85 86  1  0
 86 87  1  0
 87 88  1  0
 88 89  1  0
 89 90  2  0
 90 91  1  0
 90 92  1  0
 92 93  2  0
 93 94  1  0
 93 95  1  0
 95 96  1  0
 96 97  1  0
 97 98  1  0
 98 99  1  0
 99100  1  0
 99101  1  0
101102  2  0
101103  2  0
 81104  1  0
 40105  1  0
 65  2  1  0
 75 70  1  0
104 76  2  0
 25  4  1  0
 34 29  1  0
105 35  2  0
101 12  1  0
 60 54  2  0
 66 61  1  0
 94 88  2  0
100 95  1  0
  5106  1  0
  5107  1  0
  6108  1  0
  6109  1  0
  7110  1  0
  8111  1  0
  8112  1  0
  9113  1  0
  9114  1  0
 10115  1  0
 11116  1  0
 11117  1  0
 13118  1  0
 13119  1  0
 14120  1  0
 15121  1  0
 15122  1  0
 16123  1  0
 16124  1  0
 17125  1  0
 19126  1  0
 19127  1  0
 20128  1  0
 20129  1  0
 21130  1  0
 22131  1  0
 22132  1  0
 23133  1  0
 23134  1  0
 24135  1  0
 25136  1  0
 25137  1  0
 30138  1  0
 30139  1  0
 31140  1  0
 31141  1  0
 32142  1  0
 32143  1  0
 33144  1  0
 34145  1  0
 34146  1  0
 36147  1  0
 41148  1  0
 41149  1  0
 42150  1  0
 43151  1  0
 43152  1  0
 44153  1  0
 44154  1  0
 45155  1  0
 46156  1  0
 46157  1  0
 48158  1  0
 48159  1  0
 49160  1  0
 50161  1  0
 50162  1  0
 51163  1  0
 51164  1  0
 52165  1  0
 53166  1  0
 53167  1  0
 58168  1  0
 61169  1  0
 62170  1  0
 62171  1  0
 63172  1  0
 63173  1  0
 64174  1  0
 64175  1  0
 66176  1  0
 66177  1  0
 71178  1  0
 71179  1  0
 72180  1  0
 72181  1  0
 73182  1  0
 73183  1  0
 74184  1  0
 75185  1  0
 75186  1  0
 77187  1  0
 82188  1  0
 82189  1  0
 83190  1  0
 84191  1  0
 84192  1  0
 85193  1  0
 85194  1  0
 86195  1  0
 87196  1  0
 87197  1  0
 92198  1  0
 95199  1  0
 96200  1  0
 96201  1  0
 97202  1  0
 97203  1  0
 98204  1  0
 98205  1  0
100206  1  0
100207  1  0
M  END
