
     RDKit          3D

231245  0  0  0  0  0  0  0  0999 V2000
    8.0098   -0.7037    2.3133 O   0  0  0  0  0  0  0  0  0  0  0  0
    7.7338    0.1678    1.4750 C   0  0  0  0  0  0  0  0  0  0  0  0
    7.7742    1.4439    1.9625 N   0  0  0  0  0  0  0  0  0  0  0  0
    7.5124    2.3584    0.9640 C   0  0  0  0  0  0  0  0  0  0  0  0
    6.3597    2.8073    0.2654 C   0  0  0  0  0  0  0  0  0  0  0  0
    6.6441    3.1735   -1.0859 C   0  0  0  0  0  0  0  0  0  0  0  0
    6.0978    2.5570   -2.2862 O   0  0  0  0  0  0  0  0  0  0  0  0
    5.6359    2.0354   -3.5417 C   0  0  0  0  0  0  0  0  0  0  0  0
    4.5933    2.8939   -4.0885 N   0  0  0  0  0  0  0  0  0  0  0  0
    4.8979    3.2727   -5.4659 C   0  0  0  0  0  0  0  0  0  0  0  0
    4.1542    4.5190   -5.8704 C   0  0  0  0  0  0  0  0  0  0  0  0
    3.3473    4.1998   -7.0185 N   0  0  0  0  0  0  0  0  0  0  0  0
    2.9729    5.3546   -7.8003 C   0  0  0  0  0  0  0  0  0  0  0  0
    1.8875    4.8871   -8.7631 C   0  0  0  0  0  0  0  0  0  0  0  0
    1.0684    3.8741   -8.1594 O   0  0  0  0  0  0  0  0  0  0  0  0
    0.3618    2.8128   -7.4598 C   0  0  0  0  0  0  0  0  0  0  0  0
    0.2954    1.4306   -7.7344 C   0  0  0  0  0  0  0  0  0  0  0  0
    1.0597    0.8493   -6.7065 C   0  0  0  0  0  0  0  0  0  0  0  0
    2.2191    0.0786   -6.4906 C   0  0  0  0  0  0  0  0  0  0  0  0
    1.7263   -1.0479   -5.9092 C   0  0  0  0  0  0  0  0  0  0  0  0
    1.1336   -2.3349   -5.4021 C   0  0  0  0  0  0  0  0  0  0  0  0
    0.0700   -2.8079   -6.3078 N   0  0  0  0  0  0  0  0  0  0  0  0
   -0.8623   -3.3443   -7.3211 C   0  0  0  0  0  0  0  0  0  0  0  0
   -1.3577   -4.6844   -7.4668 C   0  0  0  0  0  0  0  0  0  0  0  0
   -2.7359   -4.8629   -7.2957 C   0  0  0  0  0  0  0  0  0  0  0  0
   -3.4567   -3.6658   -6.9915 C   0  0  0  0  0  0  0  0  0  0  0  0
   -3.0893   -2.7867   -8.0573 C   0  0  0  0  0  0  0  0  0  0  0  0
   -1.7092   -2.6205   -8.2267 C   0  0  0  0  0  0  0  0  0  0  0  0
   -4.0920   -3.3178   -5.7389 O   0  0  0  0  0  0  0  0  0  0  0  0
   -4.6750   -2.9607   -4.4752 C   0  0  0  0  0  0  0  0  0  0  0  0
   -5.6725   -3.9624   -4.1052 N   0  0  0  0  0  0  0  0  0  0  0  0
   -6.5763   -3.4117   -3.0979 C   0  0  0  0  0  0  0  0  0  0  0  0
   -5.8178   -2.9897   -1.8706 C   0  0  0  0  0  0  0  0  0  0  0  0
   -6.4438   -3.3711   -0.6351 N   0  0  0  0  0  0  0  0  0  0  0  0
   -7.0092   -2.2755    0.1029 C   0  0  0  0  0  0  0  0  0  0  0  0
   -6.0677   -1.6512    0.9744 O   0  0  0  0  0  0  0  0  0  0  0  0
   -5.0705   -0.8841    1.6135 C   0  0  0  0  0  0  0  0  0  0  0  0
   -6.3587   -0.3778    1.7808 C   0  0  0  0  0  0  0  0  0  0  0  0
   -6.4537    0.7689    2.5678 C   0  0  0  0  0  0  0  0  0  0  0  0
   -7.5144    0.7562    3.4238 N   0  0  0  0  0  0  0  0  0  0  0  0
   -7.3931    1.3357    4.6471 C   0  0  0  0  0  0  0  0  0  0  0  0
   -8.1144    1.0120    5.6288 O   0  0  0  0  0  0  0  0  0  0  0  0
   -6.2884    2.1746    4.7671 C   0  0  0  0  0  0  0  0  0  0  0  0
   -5.7553    2.7040    3.5925 C   0  0  0  0  0  0  0  0  0  0  0  0
   -5.4016    1.7021    2.6660 C   0  0  0  0  0  0  0  0  0  0  0  0
   -4.2198    1.1425    2.1093 C   0  0  0  0  0  0  0  0  0  0  0  0
   -4.0045   -0.2586    2.3462 C   0  0  0  0  0  0  0  0  0  0  0  0
   -3.0706   -0.8717    3.2615 O   0  0  0  0  0  0  0  0  0  0  0  0
   -2.1808   -1.4734    4.2149 C   0  0  0  0  0  0  0  0  0  0  0  0
   -0.8754   -0.8205    4.1609 N   0  0  0  0  0  0  0  0  0  0  0  0
    0.1815   -1.6530    4.6652 C   0  0  0  0  0  0  0  0  0  0  0  0
    1.5112   -1.4095    3.9910 C   0  0  0  0  0  0  0  0  0  0  0  0
    2.4041   -2.5032    4.2975 N   0  0  0  0  0  0  0  0  0  0  0  0
    3.7583   -2.2807    3.8794 C   0  0  0  0  0  0  0  0  0  0  0  0
    4.1737   -3.3009    2.9556 O   0  0  0  0  0  0  0  0  0  0  0  0
    4.6276   -4.2503    1.9599 C   0  0  0  0  0  0  0  0  0  0  0  0
    3.9511   -4.6340    0.7554 C   0  0  0  0  0  0  0  0  0  0  0  0
    4.5310   -4.1491   -0.4286 C   0  0  0  0  0  0  0  0  0  0  0  0
    5.7024   -3.3239   -0.3082 C   0  0  0  0  0  0  0  0  0  0  0  0
    6.5259   -4.1686    0.5099 C   0  0  0  0  0  0  0  0  0  0  0  0
    5.9753   -4.6661    1.7021 C   0  0  0  0  0  0  0  0  0  0  0  0
    5.7276   -1.8397   -0.3889 N   0  0  0  0  0  0  0  0  0  0  0  0
    5.7834   -0.3757   -0.2549 C   0  0  0  0  0  0  0  0  0  0  0  0
    7.1726    0.1254    0.1601 C   0  0  0  0  0  0  0  0  0  0  0  0
    8.1863    0.8179   -0.5891 C   0  0  0  0  0  0  0  0  0  0  0  0
    8.4929    2.0976   -0.0672 C   0  0  0  0  0  0  0  0  0  0  0  0
    8.8846    3.3214   -0.6439 C   0  0  0  0  0  0  0  0  0  0  0  0
    7.7574    4.1301   -0.9492 C   0  0  0  0  0  0  0  0  0  0  0  0
    7.7779    5.5836   -0.9949 O   0  0  0  0  0  0  0  0  0  0  0  0
    7.5352    6.9907   -0.8544 C   0  0  0  0  0  0  0  0  0  0  0  0
    6.6945    7.3075    0.3537 C   0  0  0  0  0  0  0  0  0  0  0  0
    5.4615    6.5226    0.3505 N   0  0  0  0  0  0  0  0  0  0  0  0
    5.0260    6.1737    1.6773 C   0  0  0  0  0  0  0  0  0  0  0  0
    3.5347    6.0698    1.8172 C   0  0  0  0  0  0  0  0  0  0  0  0
    3.0587    4.6894    1.7584 N   0  0  0  0  0  0  0  0  0  0  0  0
    2.5823    4.3562    0.4408 C   0  0  0  0  0  0  0  0  0  0  0  0
    1.3514    3.6240    0.5419 O   0  0  0  0  0  0  0  0  0  0  0  0
    0.1414    2.8185    0.5340 C   0  0  0  0  0  0  0  0  0  0  0  0
   -0.1464    1.6244    1.2275 C   0  0  0  0  0  0  0  0  0  0  0  0
   -0.1672    0.6359    0.2270 C   0  0  0  0  0  0  0  0  0  0  0  0
    0.4777   -0.5521   -0.1699 C   0  0  0  0  0  0  0  0  0  0  0  0
   -0.5157   -1.4773   -0.1433 C   0  0  0  0  0  0  0  0  0  0  0  0
   -1.5661   -2.5414   -0.0648 C   0  0  0  0  0  0  0  0  0  0  0  0
   -1.0877   -3.6938    0.7113 N   0  0  0  0  0  0  0  0  0  0  0  0
   -0.5583   -4.9237    1.3355 C   0  0  0  0  0  0  0  0  0  0  0  0
    0.3240   -5.0376    2.4612 C   0  0  0  0  0  0  0  0  0  0  0  0
   -0.1856   -5.6727    3.6006 C   0  0  0  0  0  0  0  0  0  0  0  0
   -1.5465   -6.1005    3.4890 C   0  0  0  0  0  0  0  0  0  0  0  0
   -1.5227   -6.9079    2.3079 C   0  0  0  0  0  0  0  0  0  0  0  0
   -0.9847   -6.2868    1.1742 C   0  0  0  0  0  0  0  0  0  0  0  0
   -2.7049   -5.5562    4.1631 O   0  0  0  0  0  0  0  0  0  0  0  0
   -3.8467   -4.9735    4.8128 C   0  0  0  0  0  0  0  0  0  0  0  0
   -3.5970   -4.8568    6.2467 N   0  0  0  0  0  0  0  0  0  0  0  0
   -4.2288   -3.6971    6.8215 C   0  0  0  0  0  0  0  0  0  0  0  0
   -3.4766   -3.1491    8.0162 C   0  0  0  0  0  0  0  0  0  0  0  0
   -3.6647   -1.7015    8.0821 N   0  0  0  0  0  0  0  0  0  0  0  0
   -2.9078   -1.2263    9.2073 C   0  0  0  0  0  0  0  0  0  0  0  0
   -3.2630    0.1243    9.5466 O   0  0  0  0  0  0  0  0  0  0  0  0
   -3.6499    1.4830    9.8574 C   0  0  0  0  0  0  0  0  0  0  0  0
   -4.8228    1.9159   10.5528 C   0  0  0  0  0  0  0  0  0  0  0  0
   -5.7678    2.5896    9.7699 C   0  0  0  0  0  0  0  0  0  0  0  0
   -5.4436    2.7398    8.3781 C   0  0  0  0  0  0  0  0  0  0  0  0
   -4.1479    3.3534    8.4533 C   0  0  0  0  0  0  0  0  0  0  0  0
   -3.1935    2.6849    9.2299 C   0  0  0  0  0  0  0  0  0  0  0  0
   -6.1338    2.1758    7.2035 N   0  0  0  0  0  0  0  0  0  0  0  0
   -6.9055    1.7377    6.0280 C   0  0  0  0  0  0  0  0  0  0  0  0
   -1.6174   -1.3325   -0.9819 C   0  0  0  0  0  0  0  0  0  0  0  0
   -2.2937   -2.3190   -1.3513 O   0  0  0  0  0  0  0  0  0  0  0  0
   -1.9021   -0.0586   -1.3212 N   0  0  0  0  0  0  0  0  0  0  0  0
   -1.2004    0.9173   -0.6913 C   0  0  0  0  0  0  0  0  0  0  0  0
   -1.6339    2.1981   -0.9763 C   0  0  0  0  0  0  0  0  0  0  0  0
   -1.0582    3.1701   -0.1671 C   0  0  0  0  0  0  0  0  0  0  0  0
   -2.1774    3.6749   -0.8645 O   0  0  0  0  0  0  0  0  0  0  0  0
   -3.3429    4.4205   -1.2172 C   0  0  0  0  0  0  0  0  0  0  0  0
   -3.0260    5.6269   -1.9329 N   0  0  0  0  0  0  0  0  0  0  0  0
   -2.0836    5.4421   -3.0040 C   0  0  0  0  0  0  0  0  0  0  0  0
   -2.7218    5.0543   -4.3082 C   0  0  0  0  0  0  0  0  0  0  0  0
   -2.5791    3.6694   -4.6403 N   0  0  0  0  0  0  0  0  0  0  0  0
   -1.3841    3.3909   -5.2912 O   0  0  0  0  0  0  0  0  0  0  0  0
   -0.4984    3.0386   -6.3338 C   0  0  0  0  0  0  0  0  0  0  0  0
   -0.2986    2.2476   -5.2085 C   0  0  0  0  0  0  0  0  0  0  0  0
    0.4561    1.1127   -5.4581 C   0  0  0  0  0  0  0  0  0  0  0  0
    0.5192    0.2385   -4.4235 N   0  0  0  0  0  0  0  0  0  0  0  0
    1.0551   -0.9645   -4.6943 C   0  0  0  0  0  0  0  0  0  0  0  0
    1.0334   -1.9466   -3.9309 O   0  0  0  0  0  0  0  0  0  0  0  0
    8.0695    1.6583    2.9475 H   0  0  0  0  0  0  0  0  0  0  0  0
    5.3698    2.9386    0.7240 H   0  0  0  0  0  0  0  0  0  0  0  0
    6.4368    1.9651   -4.2876 H   0  0  0  0  0  0  0  0  0  0  0  0
    5.2521    1.0189   -3.3815 H   0  0  0  0  0  0  0  0  0  0  0  0
    3.6762    2.3808   -4.1378 H   0  0  0  0  0  0  0  0  0  0  0  0
    5.9995    3.4121   -5.5020 H   0  0  0  0  0  0  0  0  0  0  0  0
    4.6668    2.4173   -6.1271 H   0  0  0  0  0  0  0  0  0  0  0  0
    4.9103    5.3094   -6.0661 H   0  0  0  0  0  0  0  0  0  0  0  0
    3.5358    4.8464   -4.9975 H   0  0  0  0  0  0  0  0  0  0  0  0
    3.8222    3.5189   -7.6350 H   0  0  0  0  0  0  0  0  0  0  0  0
    2.4745    6.1136   -7.1452 H   0  0  0  0  0  0  0  0  0  0  0  0
    3.8040    5.7970   -8.3677 H   0  0  0  0  0  0  0  0  0  0  0  0
    1.2342    5.7036   -9.0960 H   0  0  0  0  0  0  0  0  0  0  0  0
    2.4126    4.5084   -9.6492 H   0  0  0  0  0  0  0  0  0  0  0  0
   -0.1129    0.9521   -8.6164 H   0  0  0  0  0  0  0  0  0  0  0  0
    3.2231    0.2582   -6.8152 H   0  0  0  0  0  0  0  0  0  0  0  0
    0.7319   -2.2297   -4.3944 H   0  0  0  0  0  0  0  0  0  0  0  0
    1.9938   -3.0071   -5.3771 H   0  0  0  0  0  0  0  0  0  0  0  0
   -0.6248   -2.6366   -5.5700 H   0  0  0  0  0  0  0  0  0  0  0  0
   -0.7890   -5.5715   -7.7561 H   0  0  0  0  0  0  0  0  0  0  0  0
   -3.1385   -5.8641   -7.3922 H   0  0  0  0  0  0  0  0  0  0  0  0
   -3.7552   -2.2395   -8.7145 H   0  0  0  0  0  0  0  0  0  0  0  0
   -1.3978   -2.0013   -9.0717 H   0  0  0  0  0  0  0  0  0  0  0  0
   -5.2328   -2.0179   -4.5570 H   0  0  0  0  0  0  0  0  0  0  0  0
   -3.9048   -2.8189   -3.7081 H   0  0  0  0  0  0  0  0  0  0  0  0
   -6.2578   -4.1129   -4.9693 H   0  0  0  0  0  0  0  0  0  0  0  0
   -7.3269   -4.2103   -2.8913 H   0  0  0  0  0  0  0  0  0  0  0  0
   -7.0445   -2.5247   -3.5599 H   0  0  0  0  0  0  0  0  0  0  0  0
   -4.8438   -3.5415   -1.9075 H   0  0  0  0  0  0  0  0  0  0  0  0
   -5.5722   -1.9020   -1.9136 H   0  0  0  0  0  0  0  0  0  0  0  0
   -5.8258   -3.9333   -0.0121 H   0  0  0  0  0  0  0  0  0  0  0  0
   -7.4192   -1.5181   -0.5885 H   0  0  0  0  0  0  0  0  0  0  0  0
   -7.7906   -2.7202    0.7705 H   0  0  0  0  0  0  0  0  0  0  0  0
   -7.2337   -0.8488    1.3367 H   0  0  0  0  0  0  0  0  0  0  0  0
   -8.3870    0.2093    3.2090 H   0  0  0  0  0  0  0  0  0  0  0  0
   -5.7492    3.7830    3.4175 H   0  0  0  0  0  0  0  0  0  0  0  0
   -3.5064    1.7287    1.5058 H   0  0  0  0  0  0  0  0  0  0  0  0
   -2.6195   -1.4634    5.2221 H   0  0  0  0  0  0  0  0  0  0  0  0
   -1.9888   -2.5226    3.9519 H   0  0  0  0  0  0  0  0  0  0  0  0
   -0.9523    0.0024    4.8159 H   0  0  0  0  0  0  0  0  0  0  0  0
    0.3499   -1.4675    5.7564 H   0  0  0  0  0  0  0  0  0  0  0  0
   -0.1478   -2.6979    4.5848 H   0  0  0  0  0  0  0  0  0  0  0  0
    1.9037   -0.4503    4.4142 H   0  0  0  0  0  0  0  0  0  0  0  0
    1.3795   -1.2324    2.9123 H   0  0  0  0  0  0  0  0  0  0  0  0
    2.2961   -2.7269    5.3017 H   0  0  0  0  0  0  0  0  0  0  0  0
    3.9123   -1.2713    3.4781 H   0  0  0  0  0  0  0  0  0  0  0  0
    4.3757   -2.3474    4.8041 H   0  0  0  0  0  0  0  0  0  0  0  0
    3.0538   -5.2575    0.7032 H   0  0  0  0  0  0  0  0  0  0  0  0
    4.0297   -4.4798   -1.3384 H   0  0  0  0  0  0  0  0  0  0  0  0
    7.5356   -4.5291    0.3033 H   0  0  0  0  0  0  0  0  0  0  0  0
    6.5798   -5.3025    2.3539 H   0  0  0  0  0  0  0  0  0  0  0  0
    6.1886   -1.7705   -1.2952 H   0  0  0  0  0  0  0  0  0  0  0  0
    4.9561    0.0034    0.3990 H   0  0  0  0  0  0  0  0  0  0  0  0
    5.4045    0.0098   -1.1923 H   0  0  0  0  0  0  0  0  0  0  0  0
    8.7986    0.2991   -1.3479 H   0  0  0  0  0  0  0  0  0  0  0  0
    9.9387    3.6249   -0.7100 H   0  0  0  0  0  0  0  0  0  0  0  0
    8.5054    7.4806   -0.7183 H   0  0  0  0  0  0  0  0  0  0  0  0
    7.0988    7.3752   -1.7865 H   0  0  0  0  0  0  0  0  0  0  0  0
    7.2598    7.0956    1.2728 H   0  0  0  0  0  0  0  0  0  0  0  0
    6.3808    8.3629    0.2572 H   0  0  0  0  0  0  0  0  0  0  0  0
    4.7254    6.9376   -0.2462 H   0  0  0  0  0  0  0  0  0  0  0  0
    5.4615    5.2333    2.0573 H   0  0  0  0  0  0  0  0  0  0  0  0
    5.3737    6.9743    2.3718 H   0  0  0  0  0  0  0  0  0  0  0  0
    3.1688    6.6038    2.7079 H   0  0  0  0  0  0  0  0  0  0  0  0
    3.0856    6.5929    0.9357 H   0  0  0  0  0  0  0  0  0  0  0  0
    2.2484    4.6467    2.4320 H   0  0  0  0  0  0  0  0  0  0  0  0
    3.3307    3.8051   -0.1728 H   0  0  0  0  0  0  0  0  0  0  0  0
    2.4344    5.3218   -0.0881 H   0  0  0  0  0  0  0  0  0  0  0  0
   -0.1981    1.4833    2.3024 H   0  0  0  0  0  0  0  0  0  0  0  0
    1.5202   -0.7293   -0.3410 H   0  0  0  0  0  0  0  0  0  0  0  0
   -2.5105   -2.1817    0.3500 H   0  0  0  0  0  0  0  0  0  0  0  0
   -1.7728   -2.8050   -1.1245 H   0  0  0  0  0  0  0  0  0  0  0  0
   -1.8642   -3.5508    1.3712 H   0  0  0  0  0  0  0  0  0  0  0  0
    1.3734   -4.7397    2.5159 H   0  0  0  0  0  0  0  0  0  0  0  0
    0.4555   -5.7694    4.4766 H   0  0  0  0  0  0  0  0  0  0  0  0
   -1.8865   -7.9258    2.2067 H   0  0  0  0  0  0  0  0  0  0  0  0
   -0.8999   -6.9025    0.2755 H   0  0  0  0  0  0  0  0  0  0  0  0
   -4.7112   -5.6453    4.7264 H   0  0  0  0  0  0  0  0  0  0  0  0
   -4.1209   -4.0196    4.3468 H   0  0  0  0  0  0  0  0  0  0  0  0
   -3.7906   -5.7408    6.7473 H   0  0  0  0  0  0  0  0  0  0  0  0
   -4.3811   -2.9128    6.0667 H   0  0  0  0  0  0  0  0  0  0  0  0
   -5.2256   -4.0346    7.2030 H   0  0  0  0  0  0  0  0  0  0  0  0
   -2.3953   -3.4227    7.9972 H   0  0  0  0  0  0  0  0  0  0  0  0
   -3.8734   -3.6092    8.9563 H   0  0  0  0  0  0  0  0  0  0  0  0
   -4.6823   -1.5693    8.3246 H   0  0  0  0  0  0  0  0  0  0  0  0
   -3.0172   -1.8717   10.1155 H   0  0  0  0  0  0  0  0  0  0  0  0
   -1.8173   -1.2763    8.9784 H   0  0  0  0  0  0  0  0  0  0  0  0
   -5.0434    1.7707   11.6089 H   0  0  0  0  0  0  0  0  0  0  0  0
   -6.6471    2.9755   10.2905 H   0  0  0  0  0  0  0  0  0  0  0  0
   -3.8360    4.3013    8.0085 H   0  0  0  0  0  0  0  0  0  0  0  0
   -2.1941    3.1116    9.2927 H   0  0  0  0  0  0  0  0  0  0  0  0
   -5.6721    1.2597    7.2100 H   0  0  0  0  0  0  0  0  0  0  0  0
   -7.9350    2.1219    6.0426 H   0  0  0  0  0  0  0  0  0  0  0  0
   -6.9568    0.6442    6.0234 H   0  0  0  0  0  0  0  0  0  0  0  0
   -2.6450    0.1329   -2.0116 H   0  0  0  0  0  0  0  0  0  0  0  0
   -2.5259    2.3745   -1.5663 H   0  0  0  0  0  0  0  0  0  0  0  0
   -3.8901    4.7332   -0.2918 H   0  0  0  0  0  0  0  0  0  0  0  0
   -4.0138    3.7364   -1.7496 H   0  0  0  0  0  0  0  0  0  0  0  0
   -3.9086    6.0110   -2.3109 H   0  0  0  0  0  0  0  0  0  0  0  0
   -1.2659    4.7447   -2.7743 H   0  0  0  0  0  0  0  0  0  0  0  0
   -1.5979    6.4369   -3.1730 H   0  0  0  0  0  0  0  0  0  0  0  0
   -2.3605    5.6477   -5.1721 H   0  0  0  0  0  0  0  0  0  0  0  0
   -3.8197    5.2627   -4.2393 H   0  0  0  0  0  0  0  0  0  0  0  0
   -2.7331    3.0065   -3.8686 H   0  0  0  0  0  0  0  0  0  0  0  0
   -0.8514    2.3679   -4.2897 H   0  0  0  0  0  0  0  0  0  0  0  0
    0.1813    0.4322   -3.4725 H   0  0  0  0  0  0  0  0  0  0  0  0
  1  2  2  0
  2  3  1  0
  3  4  1  0
  4  5  1  0
  5  6  2  0
  6  7  1  0
  7  8  1  0
  8  9  1  0
  9 10  1  0
 10 11  1  0
 11 12  1  0
 12 13  1  0
 13 14  1  0
 14 15  1  0
 15 16  1  0
 16 17  2  0
 17 18  1  0
 18 19  1  0
 19 20  2  0
 20 21  1  0
 21 22  1  0
 22 23  1  0
 23 24  2  0
 24 25  1  0
 25 26  2  0
 26 27  1  0
 27 28  2  0
 26 29  1  0
 29 30  1  0
 30 31  1  0
 31 32  1  0
 32 33  1  0
 33 34  1  0
 34 35  1  0
 35 36  1  0
 36 37  1  0
 37 38  2  0
 38 39  1  0
 39 40  1  0
 40 41  1  0
 41 42  2  0
 41 43  1  0
 43 44  2  0
 44 45  1  0
 45 46  1  0
 46 47  2  0
 47 48  1  0
 48 49  1  0
 49 50  1  0
 50 51  1  0
 51 52  1  0
 52 53  1  0
 53 54  1  0
 54 55  1  0
 55 56  1  0
 56 57  2  0
 57 58  1  0
 58 59  2  0
 59 60  1  0
 60 61  2  0
 59 62  1  0
 62 63  1  0
 63 64  1  0
 64 65  2  0
 65 66  1  0
 66 67  1  0
 67 68  2  0
 68 69  1  0
 69 70  1  0
 70 71  1  0
 71 72  1  0
 72 73  1  0
 73 74  1  0
 74 75  1  0
 75 76  1  0
 76 77  1  0
 77 78  1  0
 78 79  1  0
 79 80  2  0
 80 81  1  0
 81 82  2  0
 82 83  1  0
 83 84  1  0
 84 85  1  0
 85 86  1  0
 86 87  2  0
 87 88  1  0
 88 89  2  0
 89 90  1  0
 88 91  1  0
 91 92  1  0
 92 93  1  0
 93 94  1  0
 94 95  1  0
 95 96  1  0
 96 97  1  0
 97 98  1  0
 98 99  1  0
 99100  2  0
100101  1  0
101102  2  0
102103  1  0
103104  2  0
102105  1  0
105106  1  0
 82107  1  0
107108  2  0
107109  1  0
109110  1  0
110111  2  0
111112  1  0
112113  1  0
113114  1  0
114115  1  0
115116  1  0
116117  1  0
117118  1  0
118119  1  0
119120  1  0
120121  2  0
121122  1  0
122123  1  0
123124  1  0
124125  2  0
 64  2  1  0
112 78  2  0
 66  4  2  0
110 80  1  0
 68  6  1  0
 90 85  2  0
104 99  1  0
120 16  1  0
122 18  2  0
124 20  1  0
 28 23  1  0
 47 37  1  0
 61 56  1  0
 45 39  2  0
106 43  1  0
  3126  1  0
  5127  1  0
  8128  1  0
  8129  1  0
  9130  1  0
 10131  1  0
 10132  1  0
 11133  1  0
 11134  1  0
 12135  1  0
 13136  1  0
 13137  1  0
 14138  1  0
 14139  1  0
 17140  1  0
 19141  1  0
 21142  1  0
 21143  1  0
 22144  1  0
 24145  1  0
 25146  1  0
 27147  1  0
 28148  1  0
 30149  1  0
 30150  1  0
 31151  1  0
 32152  1  0
 32153  1  0
 33154  1  0
 33155  1  0
 34156  1  0
 35157  1  0
 35158  1  0
 38159  1  0
 40160  1  0
 44161  1  0
 46162  1  0
 49163  1  0
 49164  1  0
 50165  1  0
 51166  1  0
 51167  1  0
 52168  1  0
 52169  1  0
 53170  1  0
 54171  1  0
 54172  1  0
 57173  1  0
 58174  1  0
 60175  1  0
 61176  1  0
 62177  1  0
 63178  1  0
 63179  1  0
 65180  1  0
 67181  1  0
 70182  1  0
 70183  1  0
 71184  1  0
 71185  1  0
 72186  1  0
 73187  1  0
 73188  1  0
 74189  1  0
 74190  1  0
 75191  1  0
 76192  1  0
 76193  1  0
 79194  1  0
 81195  1  0
 83196  1  0
 83197  1  0
 84198  1  0
 86199  1  0
 87200  1  0
 89201  1  0
 90202  1  0
 92203  1  0
 92204  1  0
 93205  1  0
 94206  1  0
 94207  1  0
 95208  1  0
 95209  1  0
 96210  1  0
 97211  1  0
 97212  1  0
100213  1  0
101214  1  0
103215  1  0
104216  1  0
105217  1  0
106218  1  0
106219  1  0
109220  1  0
111221  1  0
114222  1  0
114223  1  0
115224  1  0
116225  1  0
116226  1  0
117227  1  0
117228  1  0
118229  1  0
121230  1  0
123231  1  0
M  END
