
     RDKit          3D

163169  0  0  0  0  0  0  0  0999 V2000
   -4.8392   -6.3819    1.5857 O   0  0  0  0  0  0  0  0  0  0  0  0
   -4.9123   -5.5237    0.6548 C   0  0  0  0  0  0  0  0  0  0  0  0
   -6.2851   -5.2180    0.1457 C   0  0  0  0  0  0  0  0  0  0  0  0
   -7.1770   -4.1988    1.3024 Cl  0  0  0  0  0  0  0  0  0  0  0  0
   -3.9623   -4.5077    0.6342 N   0  0  0  0  0  0  0  0  0  0  0  0
   -2.8859   -4.3235   -0.3284 C   0  0  0  0  0  0  0  0  0  0  0  0
   -1.5320   -4.6546    0.0082 C   0  0  0  0  0  0  0  0  0  0  0  0
   -1.3377   -5.6382   -1.0023 C   0  0  0  0  0  0  0  0  0  0  0  0
   -1.3082   -5.1429   -2.3385 C   0  0  0  0  0  0  0  0  0  0  0  0
   -2.6580   -4.6987   -2.4165 C   0  0  0  0  0  0  0  0  0  0  0  0
   -3.0692   -3.6343   -1.5604 C   0  0  0  0  0  0  0  0  0  0  0  0
   -2.8798   -2.1732   -1.8292 C   0  0  0  0  0  0  0  0  0  0  0  0
   -3.7769   -1.2783   -1.1453 N   0  0  0  0  0  0  0  0  0  0  0  0
   -3.2880   -0.8056    0.1155 C   0  0  0  0  0  0  0  0  0  0  0  0
   -2.0142   -0.0236    0.0515 C   0  0  0  0  0  0  0  0  0  0  0  0
   -2.0844    1.1340   -0.8142 N   0  0  0  0  0  0  0  0  0  0  0  0
   -1.1985    2.1258   -0.2462 C   0  0  0  0  0  0  0  0  0  0  0  0
   -1.6465    3.1628    0.6773 C   0  0  0  0  0  0  0  0  0  0  0  0
   -1.5392    4.5845    0.4928 C   0  0  0  0  0  0  0  0  0  0  0  0
   -2.8050    5.0476   -0.0197 C   0  0  0  0  0  0  0  0  0  0  0  0
   -3.0331    5.2810   -1.4479 C   0  0  0  0  0  0  0  0  0  0  0  0
   -3.2811    4.1685   -2.3257 N   0  0  0  0  0  0  0  0  0  0  0  0
   -2.6692    4.2475   -3.6156 C   0  0  0  0  0  0  0  0  0  0  0  0
   -1.2233    4.6597   -3.5886 C   0  0  0  0  0  0  0  0  0  0  0  0
   -0.4087    4.0039   -4.5713 N   0  0  0  0  0  0  0  0  0  0  0  0
    0.7893    3.5273   -3.8719 C   0  0  0  0  0  0  0  0  0  0  0  0
    1.5185    2.4128   -4.4940 C   0  0  0  0  0  0  0  0  0  0  0  0
    1.1967    1.0298   -4.3516 C   0  0  0  0  0  0  0  0  0  0  0  0
    2.2660    0.1436   -4.7453 C   0  0  0  0  0  0  0  0  0  0  0  0
    2.6357   -0.3364   -6.1411 C   0  0  0  0  0  0  0  0  0  0  0  0
    2.2956   -1.7406   -6.3703 N   0  0  0  0  0  0  0  0  0  0  0  0
    0.8781   -1.9823   -6.3157 C   0  0  0  0  0  0  0  0  0  0  0  0
    0.5052   -2.7659   -5.0606 C   0  0  0  0  0  0  0  0  0  0  0  0
    0.8964   -4.1382   -5.1251 N   0  0  0  0  0  0  0  0  0  0  0  0
    0.0242   -5.0700   -4.4894 C   0  0  0  0  0  0  0  0  0  0  0  0
   -0.1595   -4.5525   -3.0629 C   0  0  0  0  0  0  0  0  0  0  0  0
    3.1039    0.5020   -3.6225 C   0  0  0  0  0  0  0  0  0  0  0  0
    3.6872   -0.5987   -2.8569 N   0  0  0  0  0  0  0  0  0  0  0  0
    4.9983   -0.9716   -3.2127 C   0  0  0  0  0  0  0  0  0  0  0  0
    5.2085   -1.9486   -3.9916 O   0  0  0  0  0  0  0  0  0  0  0  0
    6.1798   -0.5263   -2.4123 C   0  0  0  0  0  0  0  0  0  0  0  0
    7.3226    0.3579   -3.4598 Cl  0  0  0  0  0  0  0  0  0  0  0  0
    3.6019    1.8429   -3.6856 C   0  0  0  0  0  0  0  0  0  0  0  0
    2.9211    2.4113   -4.8176 C   0  0  0  0  0  0  0  0  0  0  0  0
    4.1158    2.6264   -2.5256 C   0  0  0  0  0  0  0  0  0  0  0  0
    3.2463    2.8190   -1.3855 N   0  0  0  0  0  0  0  0  0  0  0  0
    3.8651    2.5589   -0.1179 C   0  0  0  0  0  0  0  0  0  0  0  0
    3.5105    1.2136    0.4645 C   0  0  0  0  0  0  0  0  0  0  0  0
    2.8195    1.3697    1.7562 N   0  0  0  0  0  0  0  0  0  0  0  0
    2.2159    1.2980    3.0853 C   0  0  0  0  0  0  0  0  0  0  0  0
    2.8557    2.0393    4.1266 C   0  0  0  0  0  0  0  0  0  0  0  0
    2.3619    1.5898    5.3847 C   0  0  0  0  0  0  0  0  0  0  0  0
    3.1124    0.3681    5.3793 C   0  0  0  0  0  0  0  0  0  0  0  0
    2.7344   -0.5766    4.3733 C   0  0  0  0  0  0  0  0  0  0  0  0
    3.6045   -1.6536    3.8286 C   0  0  0  0  0  0  0  0  0  0  0  0
    3.4196   -3.0133    4.4987 C   0  0  0  0  0  0  0  0  0  0  0  0
    3.1555   -4.0806    3.6068 N   0  0  0  0  0  0  0  0  0  0  0  0
    1.7788   -4.4514    3.4584 C   0  0  0  0  0  0  0  0  0  0  0  0
    1.3915   -4.2669    2.0259 C   0  0  0  0  0  0  0  0  0  0  0  0
   -0.0393   -4.3620    1.9407 N   0  0  0  0  0  0  0  0  0  0  0  0
   -0.4673   -3.8183    0.6520 C   0  0  0  0  0  0  0  0  0  0  0  0
    1.6680    0.1003    3.6762 C   0  0  0  0  0  0  0  0  0  0  0  0
    0.3166   -0.3849    3.5230 N   0  0  0  0  0  0  0  0  0  0  0  0
   -0.3685   -1.1394    4.4825 C   0  0  0  0  0  0  0  0  0  0  0  0
    0.1614   -1.5973    5.5402 O   0  0  0  0  0  0  0  0  0  0  0  0
   -1.8420   -0.8924    4.6012 C   0  0  0  0  0  0  0  0  0  0  0  0
   -2.6268   -2.2520    5.4085 Cl  0  0  0  0  0  0  0  0  0  0  0  0
    1.0852    1.9343    6.1200 C   0  0  0  0  0  0  0  0  0  0  0  0
    0.0719    2.6774    5.4717 N   0  0  0  0  0  0  0  0  0  0  0  0
    0.3813    4.0290    5.1422 C   0  0  0  0  0  0  0  0  0  0  0  0
   -0.9179    4.8233    5.0664 C   0  0  0  0  0  0  0  0  0  0  0  0
   -1.2010    5.0312    3.6781 N   0  0  0  0  0  0  0  0  0  0  0  0
   -2.5659    5.1630    3.3311 C   0  0  0  0  0  0  0  0  0  0  0  0
   -3.1423    4.3124    2.2050 C   0  0  0  0  0  0  0  0  0  0  0  0
   -2.6400    3.0643    1.6922 C   0  0  0  0  0  0  0  0  0  0  0  0
   -3.7749    4.6521    0.9522 C   0  0  0  0  0  0  0  0  0  0  0  0
   -5.2032    4.9629    0.9966 N   0  0  0  0  0  0  0  0  0  0  0  0
   -5.5371    6.3125    1.2205 C   0  0  0  0  0  0  0  0  0  0  0  0
   -5.7057    7.0415    0.1977 O   0  0  0  0  0  0  0  0  0  0  0  0
   -6.4018    6.6286    2.3900 C   0  0  0  0  0  0  0  0  0  0  0  0
   -8.0299    5.9794    2.0401 Cl  0  0  0  0  0  0  0  0  0  0  0  0
   -6.8507   -6.1529    0.0264 H   0  0  0  0  0  0  0  0  0  0  0  0
   -6.1727   -4.6422   -0.8017 H   0  0  0  0  0  0  0  0  0  0  0  0
   -4.0677   -3.7402    1.3103 H   0  0  0  0  0  0  0  0  0  0  0  0
   -1.1447   -6.7052   -0.7733 H   0  0  0  0  0  0  0  0  0  0  0  0
   -3.3744   -5.1520   -3.1375 H   0  0  0  0  0  0  0  0  0  0  0  0
   -3.1329   -1.8168   -2.8515 H   0  0  0  0  0  0  0  0  0  0  0  0
   -1.8789   -1.7476   -1.6910 H   0  0  0  0  0  0  0  0  0  0  0  0
   -4.7257   -1.6651   -0.9929 H   0  0  0  0  0  0  0  0  0  0  0  0
   -4.0700   -0.1128    0.5183 H   0  0  0  0  0  0  0  0  0  0  0  0
   -3.1525   -1.5821    0.8814 H   0  0  0  0  0  0  0  0  0  0  0  0
   -1.8295    0.3432    1.0948 H   0  0  0  0  0  0  0  0  0  0  0  0
   -1.1201   -0.6136   -0.1988 H   0  0  0  0  0  0  0  0  0  0  0  0
   -3.0478    1.5394   -0.7763 H   0  0  0  0  0  0  0  0  0  0  0  0
   -0.8330    2.4269   -1.2685 H   0  0  0  0  0  0  0  0  0  0  0  0
   -0.2758    1.5592    0.0643 H   0  0  0  0  0  0  0  0  0  0  0  0
   -0.6652    5.1998    0.7483 H   0  0  0  0  0  0  0  0  0  0  0  0
   -3.7724    6.0708   -1.7579 H   0  0  0  0  0  0  0  0  0  0  0  0
   -2.2374    5.8326   -2.0264 H   0  0  0  0  0  0  0  0  0  0  0  0
   -4.3173    4.0734   -2.4802 H   0  0  0  0  0  0  0  0  0  0  0  0
   -2.7160    3.2541   -4.0842 H   0  0  0  0  0  0  0  0  0  0  0  0
   -3.2613    4.9315   -4.2733 H   0  0  0  0  0  0  0  0  0  0  0  0
   -1.2015    5.7554   -3.8026 H   0  0  0  0  0  0  0  0  0  0  0  0
   -0.8578    4.4455   -2.5550 H   0  0  0  0  0  0  0  0  0  0  0  0
   -0.1985    4.5565   -5.4127 H   0  0  0  0  0  0  0  0  0  0  0  0
    1.2845    4.5403   -3.8593 H   0  0  0  0  0  0  0  0  0  0  0  0
    0.6503    3.5414   -2.7578 H   0  0  0  0  0  0  0  0  0  0  0  0
    0.1877    0.5857   -4.2284 H   0  0  0  0  0  0  0  0  0  0  0  0
    2.1979    0.1792   -7.0003 H   0  0  0  0  0  0  0  0  0  0  0  0
    3.6884   -0.2639   -6.4414 H   0  0  0  0  0  0  0  0  0  0  0  0
    2.8266   -2.3471   -5.6918 H   0  0  0  0  0  0  0  0  0  0  0  0
    0.3849   -0.9841   -6.2043 H   0  0  0  0  0  0  0  0  0  0  0  0
    0.4803   -2.4857   -7.2217 H   0  0  0  0  0  0  0  0  0  0  0  0
   -0.5845   -2.6829   -4.8671 H   0  0  0  0  0  0  0  0  0  0  0  0
    1.1168   -2.2895   -4.2516 H   0  0  0  0  0  0  0  0  0  0  0  0
    1.8742   -4.3248   -4.8325 H   0  0  0  0  0  0  0  0  0  0  0  0
   -0.9609   -5.1958   -4.9982 H   0  0  0  0  0  0  0  0  0  0  0  0
    0.5096   -6.0619   -4.5123 H   0  0  0  0  0  0  0  0  0  0  0  0
    0.8748   -4.7853   -2.7024 H   0  0  0  0  0  0  0  0  0  0  0  0
   -0.0436   -3.4387   -3.0480 H   0  0  0  0  0  0  0  0  0  0  0  0
    3.2952   -0.9778   -1.9898 H   0  0  0  0  0  0  0  0  0  0  0  0
    5.8575    0.1775   -1.6078 H   0  0  0  0  0  0  0  0  0  0  0  0
    6.6786   -1.3883   -1.9475 H   0  0  0  0  0  0  0  0  0  0  0  0
    3.3757    2.7200   -5.7681 H   0  0  0  0  0  0  0  0  0  0  0  0
    5.1887    2.4514   -2.2529 H   0  0  0  0  0  0  0  0  0  0  0  0
    4.2725    3.7286   -2.6905 H   0  0  0  0  0  0  0  0  0  0  0  0
    2.4003    2.2307   -1.4756 H   0  0  0  0  0  0  0  0  0  0  0  0
    3.5731    3.3380    0.6310 H   0  0  0  0  0  0  0  0  0  0  0  0
    4.9681    2.6871   -0.2513 H   0  0  0  0  0  0  0  0  0  0  0  0
    2.8301    0.7408   -0.2887 H   0  0  0  0  0  0  0  0  0  0  0  0
    4.4208    0.6181    0.5110 H   0  0  0  0  0  0  0  0  0  0  0  0
    2.0278    1.8137    1.2115 H   0  0  0  0  0  0  0  0  0  0  0  0
    3.3527    3.0297    4.0676 H   0  0  0  0  0  0  0  0  0  0  0  0
    3.7380    0.1293    6.2663 H   0  0  0  0  0  0  0  0  0  0  0  0
    3.4383   -1.9536    2.7550 H   0  0  0  0  0  0  0  0  0  0  0  0
    4.6854   -1.4425    3.6170 H   0  0  0  0  0  0  0  0  0  0  0  0
    2.6847   -2.9846    5.3151 H   0  0  0  0  0  0  0  0  0  0  0  0
    4.4060   -3.2183    4.9893 H   0  0  0  0  0  0  0  0  0  0  0  0
    3.6296   -3.9291    2.6950 H   0  0  0  0  0  0  0  0  0  0  0  0
    1.7051   -5.5411    3.6831 H   0  0  0  0  0  0  0  0  0  0  0  0
    1.0867   -3.9442    4.1422 H   0  0  0  0  0  0  0  0  0  0  0  0
    1.6546   -3.2139    1.7500 H   0  0  0  0  0  0  0  0  0  0  0  0
    1.8645   -5.0043    1.3612 H   0  0  0  0  0  0  0  0  0  0  0  0
   -0.5516   -3.9617    2.7410 H   0  0  0  0  0  0  0  0  0  0  0  0
    0.4341   -3.5569    0.0825 H   0  0  0  0  0  0  0  0  0  0  0  0
   -0.7478   -2.7743    0.9442 H   0  0  0  0  0  0  0  0  0  0  0  0
   -0.1097   -0.5150    2.5642 H   0  0  0  0  0  0  0  0  0  0  0  0
   -1.9969    0.0777    5.1258 H   0  0  0  0  0  0  0  0  0  0  0  0
   -2.2697   -0.7493    3.5810 H   0  0  0  0  0  0  0  0  0  0  0  0
    1.2769    2.5513    7.0398 H   0  0  0  0  0  0  0  0  0  0  0  0
    0.4614    1.1093    6.4901 H   0  0  0  0  0  0  0  0  0  0  0  0
   -0.5654    2.1829    4.8456 H   0  0  0  0  0  0  0  0  0  0  0  0
    0.9632    4.1089    4.2086 H   0  0  0  0  0  0  0  0  0  0  0  0
    1.0462    4.4237    5.9501 H   0  0  0  0  0  0  0  0  0  0  0  0
   -0.6935    5.8183    5.5164 H   0  0  0  0  0  0  0  0  0  0  0  0
   -1.7107    4.2834    5.5996 H   0  0  0  0  0  0  0  0  0  0  0  0
   -0.5354    5.6925    3.2568 H   0  0  0  0  0  0  0  0  0  0  0  0
   -3.1430    5.0479    4.2871 H   0  0  0  0  0  0  0  0  0  0  0  0
   -2.6124    6.2547    3.1831 H   0  0  0  0  0  0  0  0  0  0  0  0
   -2.8906    2.1443    2.2615 H   0  0  0  0  0  0  0  0  0  0  0  0
   -5.9503    4.3451    0.6607 H   0  0  0  0  0  0  0  0  0  0  0  0
   -5.9947    6.2358    3.3387 H   0  0  0  0  0  0  0  0  0  0  0  0
   -6.4923    7.7322    2.4880 H   0  0  0  0  0  0  0  0  0  0  0  0
  1  2  2  0
  2  3  1  0
  3  4  1  0
  2  5  1  0
  5  6  1  0
  6  7  2  0
  7  8  1  0
  8  9  2  0
  9 10  1  0
 10 11  2  0
 11 12  1  0
 12 13  1  0
 13 14  1  0
 14 15  1  0
 15 16  1  0
 16 17  1  0
 17 18  1  0
 18 19  2  0
 19 20  1  0
 20 21  1  0
 21 22  1  0
 22 23  1  0
 23 24  1  0
 24 25  1  0
 25 26  1  0
 26 27  1  0
 27 28  2  0
 28 29  1  0
 29 30  1  0
 30 31  1  0
 31 32  1  0
 32 33  1  0
 33 34  1  0
 34 35  1  0
 35 36  1  0
 29 37  2  0
 37 38  1  0
 38 39  1  0
 39 40  2  0
 39 41  1  0
 41 42  1  0
 37 43  1  0
 43 44  2  0
 43 45  1  0
 45 46  1  0
 46 47  1  0
 47 48  1  0
 48 49  1  0
 49 50  1  0
 50 51  2  0
 51 52  1  0
 52 53  2  0
 53 54  1  0
 54 55  1  0
 55 56  1  0
 56 57  1  0
 57 58  1  0
 58 59  1  0
 59 60  1  0
 60 61  1  0
 54 62  2  0
 62 63  1  0
 63 64  1  0
 64 65  2  0
 64 66  1  0
 66 67  1  0
 52 68  1  0
 68 69  1  0
 69 70  1  0
 70 71  1  0
 71 72  1  0
 72 73  1  0
 73 74  1  0
 74 75  2  0
 74 76  1  0
 76 77  1  0
 77 78  1  0
 78 79  2  0
 78 80  1  0
 80 81  1  0
 11  6  1  0
 75 18  1  0
 61  7  1  0
 36  9  1  0
 62 50  1  0
 76 20  2  0
 44 27  1  0
  3 82  1  0
  3 83  1  0
  5 84  1  0
  8 85  1  0
 10 86  1  0
 12 87  1  0
 12 88  1  0
 13 89  1  0
 14 90  1  0
 14 91  1  0
 15 92  1  0
 15 93  1  0
 16 94  1  0
 17 95  1  0
 17 96  1  0
 19 97  1  0
 21 98  1  0
 21 99  1  0
 22100  1  0
 23101  1  0
 23102  1  0
 24103  1  0
 24104  1  0
 25105  1  0
 26106  1  0
 26107  1  0
 28108  1  0
 30109  1  0
 30110  1  0
 31111  1  0
 32112  1  0
 32113  1  0
 33114  1  0
 33115  1  0
 34116  1  0
 35117  1  0
 35118  1  0
 36119  1  0
 36120  1  0
 38121  1  0
 41122  1  0
 41123  1  0
 44124  1  0
 45125  1  0
 45126  1  0
 46127  1  0
 47128  1  0
 47129  1  0
 48130  1  0
 48131  1  0
 49132  1  0
 51133  1  0
 53134  1  0
 55135  1  0
 55136  1  0
 56137  1  0
 56138  1  0
 57139  1  0
 58140  1  0
 58141  1  0
 59142  1  0
 59143  1  0
 60144  1  0
 61145  1  0
 61146  1  0
 63147  1  0
 66148  1  0
 66149  1  0
 68150  1  0
 68151  1  0
 69152  1  0
 70153  1  0
 70154  1  0
 71155  1  0
 71156  1  0
 72157  1  0
 73158  1  0
 73159  1  0
 75160  1  0
 77161  1  0
 80162  1  0
 80163  1  0
M  END
