
     RDKit          3D

183189  0  0  0  0  0  0  0  0999 V2000
   -2.1799   -3.9107    4.5952 O   0  0  0  0  0  0  0  0  0  0  0  0
   -2.7703   -4.3356    4.7800 C   0  0  0  0  0  0  0  0  0  0  0  0
   -3.1905   -3.3281    5.8102 C   0  0  0  0  0  0  0  0  0  0  0  0
   -2.1533   -2.3375    5.9215 N   0  0  0  0  0  0  0  0  0  0  0  0
   -2.6090   -1.0643    6.4116 C   0  0  0  0  0  0  0  0  0  0  0  0
   -1.7314    0.0830    5.9520 C   0  0  0  0  0  0  0  0  0  0  0  0
   -0.4709    0.1348    6.6480 N   0  0  0  0  0  0  0  0  0  0  0  0
    0.1106    1.4538    6.6074 C   0  0  0  0  0  0  0  0  0  0  0  0
    1.5876    1.4721    6.8659 C   0  0  0  0  0  0  0  0  0  0  0  0
    2.3490    0.3798    6.1748 C   0  0  0  0  0  0  0  0  0  0  0  0
    2.0028    0.3331    4.6911 C   0  0  0  0  0  0  0  0  0  0  0  0
    2.8190    1.3826    4.0460 C   0  0  0  0  0  0  0  0  0  0  0  0
    2.3538    1.8853    2.8041 N   0  0  0  0  0  0  0  0  0  0  0  0
    3.3345    2.5098    1.9771 C   0  0  0  0  0  0  0  0  0  0  0  0
    3.4806    3.9883    2.1890 C   0  0  0  0  0  0  0  0  0  0  0  0
    3.5224    4.7243    0.9513 N   0  0  0  0  0  0  0  0  0  0  0  0
    4.0988    6.0370    1.0796 C   0  0  0  0  0  0  0  0  0  0  0  0
    3.0878    7.1299    0.8883 C   0  0  0  0  0  0  0  0  0  0  0  0
    3.1692    7.4593    2.0700 O   0  0  0  0  0  0  0  0  0  0  0  0
    1.7792    7.8513    0.7415 C   0  0  0  0  0  0  0  0  0  0  0  0
    0.7153    7.1203    1.3736 O   0  0  0  0  0  0  0  0  0  0  0  0
   -0.3519    6.3353    1.9594 C   0  0  0  0  0  0  0  0  0  0  0  0
   -0.3753    4.9171    2.1331 C   0  0  0  0  0  0  0  0  0  0  0  0
   -1.2321    4.2494    1.2456 C   0  0  0  0  0  0  0  0  0  0  0  0
   -2.0244    5.0503    0.3683 C   0  0  0  0  0  0  0  0  0  0  0  0
   -2.6263    5.9708    1.2890 C   0  0  0  0  0  0  0  0  0  0  0  0
   -1.7243    6.7186    2.0550 C   0  0  0  0  0  0  0  0  0  0  0  0
   -1.8773    5.1315   -1.1514 C   0  0  0  0  0  0  0  0  0  0  0  0
   -0.5060    5.1976   -1.7054 C   0  0  0  0  0  0  0  0  0  0  0  0
    0.3827    4.0272   -1.4824 C   0  0  0  0  0  0  0  0  0  0  0  0
    1.4302    3.9156   -2.5009 N   0  0  0  0  0  0  0  0  0  0  0  0
    1.0680    2.9806   -3.5168 C   0  0  0  0  0  0  0  0  0  0  0  0
    2.1408    2.2017   -4.1497 C   0  0  0  0  0  0  0  0  0  0  0  0
    3.2905    1.8652   -3.4112 N   0  0  0  0  0  0  0  0  0  0  0  0
    3.3540    0.6040   -2.7862 C   0  0  0  0  0  0  0  0  0  0  0  0
    3.4503   -0.6142   -3.6069 C   0  0  0  0  0  0  0  0  0  0  0  0
    3.5280   -1.7093   -2.5443 C   0  0  0  0  0  0  0  0  0  0  0  0
    2.7385   -2.8910   -3.0955 C   0  0  0  0  0  0  0  0  0  0  0  0
    2.2917   -3.8000   -2.0716 N   0  0  0  0  0  0  0  0  0  0  0  0
    1.0240   -4.3621   -2.4615 C   0  0  0  0  0  0  0  0  0  0  0  0
    0.3518   -5.1871   -1.4150 C   0  0  0  0  0  0  0  0  0  0  0  0
   -0.2439   -4.4618   -0.3440 N   0  0  0  0  0  0  0  0  0  0  0  0
   -1.6629   -4.6242   -0.1893 C   0  0  0  0  0  0  0  0  0  0  0  0
   -2.4941   -3.9496   -1.2152 C   0  0  0  0  0  0  0  0  0  0  0  0
   -3.7967   -3.3957   -0.8067 C   0  0  0  0  0  0  0  0  0  0  0  0
   -3.4067   -2.3917    0.2269 C   0  0  0  0  0  0  0  0  0  0  0  0
   -4.3744   -1.2161    0.3109 C   0  0  0  0  0  0  0  0  0  0  0  0
   -4.1124   -0.1800   -0.6389 N   0  0  0  0  0  0  0  0  0  0  0  0
   -3.9049    1.1229   -0.0099 C   0  0  0  0  0  0  0  0  0  0  0  0
   -4.0433    2.2650   -0.9732 C   0  0  0  0  0  0  0  0  0  0  0  0
   -2.7675    2.8358   -1.3124 N   0  0  0  0  0  0  0  0  0  0  0  0
   -2.8120    4.1570   -1.8594 C   0  0  0  0  0  0  0  0  0  0  0  0
   -4.8650   -4.4007   -0.3811 C   0  0  0  0  0  0  0  0  0  0  0  0
   -5.9315   -4.1761    0.5385 C   0  0  0  0  0  0  0  0  0  0  0  0
   -5.8413   -4.8210    1.7782 C   0  0  0  0  0  0  0  0  0  0  0  0
   -4.7161   -5.6877    1.9293 C   0  0  0  0  0  0  0  0  0  0  0  0
   -4.7385   -6.5136    0.7640 C   0  0  0  0  0  0  0  0  0  0  0  0
   -4.8476   -5.8284   -0.4516 C   0  0  0  0  0  0  0  0  0  0  0  0
   -3.5815   -5.4575    2.7977 O   0  0  0  0  0  0  0  0  0  0  0  0
   -2.4561   -5.2943    3.6766 C   0  0  0  0  0  0  0  0  0  0  0  0
    4.6267   -0.6824   -4.5848 C   0  0  0  0  0  0  0  0  0  0  0  0
    4.7292   -1.5798   -5.6893 C   0  0  0  0  0  0  0  0  0  0  0  0
    4.6376   -1.0534   -6.9862 C   0  0  0  0  0  0  0  0  0  0  0  0
    4.3830    0.3530   -7.0248 C   0  0  0  0  0  0  0  0  0  0  0  0
    5.3985    0.9161   -6.1918 C   0  0  0  0  0  0  0  0  0  0  0  0
    5.5917    0.3133   -4.9419 C   0  0  0  0  0  0  0  0  0  0  0  0
    3.1510    0.9956   -7.4272 O   0  0  0  0  0  0  0  0  0  0  0  0
    1.9514    1.5942   -7.9487 C   0  0  0  0  0  0  0  0  0  0  0  0
    0.7469    0.8603   -7.5135 C   0  0  0  0  0  0  0  0  0  0  0  0
    0.0182    1.5292   -8.2130 O   0  0  0  0  0  0  0  0  0  0  0  0
   -0.3025   -0.1040   -7.0478 C   0  0  0  0  0  0  0  0  0  0  0  0
   -0.8872    0.2809   -5.7936 N   0  0  0  0  0  0  0  0  0  0  0  0
   -0.8770   -0.7816   -4.8157 C   0  0  0  0  0  0  0  0  0  0  0  0
   -1.7488   -0.4574   -3.6407 C   0  0  0  0  0  0  0  0  0  0  0  0
   -0.9208   -0.3857   -2.4617 N   0  0  0  0  0  0  0  0  0  0  0  0
   -0.3951   -0.0660   -1.1683 C   0  0  0  0  0  0  0  0  0  0  0  0
    0.2697   -1.1033   -1.0972 O   0  0  0  0  0  0  0  0  0  0  0  0
    0.2373    0.4893    0.0441 C   0  0  0  0  0  0  0  0  0  0  0  0
    0.8143   -0.5769    0.8135 O   0  0  0  0  0  0  0  0  0  0  0  0
    1.3676   -1.6231    1.6459 C   0  0  0  0  0  0  0  0  0  0  0  0
    0.6774   -2.3483    2.6661 C   0  0  0  0  0  0  0  0  0  0  0  0
    1.0882   -2.0406    3.9693 C   0  0  0  0  0  0  0  0  0  0  0  0
    2.1357   -1.0822    4.1246 C   0  0  0  0  0  0  0  0  0  0  0  0
    3.1431   -1.6243    3.2656 C   0  0  0  0  0  0  0  0  0  0  0  0
    2.7490   -1.8445    1.9389 C   0  0  0  0  0  0  0  0  0  0  0  0
   -4.1409   -2.8580    5.5221 H   0  0  0  0  0  0  0  0  0  0  0  0
   -3.2947   -3.8347    6.7932 H   0  0  0  0  0  0  0  0  0  0  0  0
   -1.3257   -2.6546    6.4542 H   0  0  0  0  0  0  0  0  0  0  0  0
   -2.6692   -1.0028    7.5130 H   0  0  0  0  0  0  0  0  0  0  0  0
   -3.6333   -0.8764    6.0062 H   0  0  0  0  0  0  0  0  0  0  0  0
   -2.2914    1.0186    6.2053 H   0  0  0  0  0  0  0  0  0  0  0  0
   -1.6238    0.0902    4.8449 H   0  0  0  0  0  0  0  0  0  0  0  0
   -0.6414   -0.1751    7.6250 H   0  0  0  0  0  0  0  0  0  0  0  0
   -0.3639    2.0258    7.4458 H   0  0  0  0  0  0  0  0  0  0  0  0
   -0.1821    2.0233    5.6888 H   0  0  0  0  0  0  0  0  0  0  0  0
    1.9582    2.4798    6.5486 H   0  0  0  0  0  0  0  0  0  0  0  0
    1.7393    1.3798    7.9543 H   0  0  0  0  0  0  0  0  0  0  0  0
    3.4263    0.6166    6.2663 H   0  0  0  0  0  0  0  0  0  0  0  0
    2.0694   -0.5808    6.6304 H   0  0  0  0  0  0  0  0  0  0  0  0
    1.0218    0.8051    4.5888 H   0  0  0  0  0  0  0  0  0  0  0  0
    3.8421    0.9616    3.8702 H   0  0  0  0  0  0  0  0  0  0  0  0
    2.9472    2.2087    4.7488 H   0  0  0  0  0  0  0  0  0  0  0  0
    1.4159    2.3016    2.7924 H   0  0  0  0  0  0  0  0  0  0  0  0
    4.2938    1.9693    2.1253 H   0  0  0  0  0  0  0  0  0  0  0  0
    3.0749    2.3563    0.8991 H   0  0  0  0  0  0  0  0  0  0  0  0
    4.4698    4.1515    2.6869 H   0  0  0  0  0  0  0  0  0  0  0  0
    2.6401    4.3239    2.8120 H   0  0  0  0  0  0  0  0  0  0  0  0
    3.8674    4.1817    0.1424 H   0  0  0  0  0  0  0  0  0  0  0  0
    4.6314    6.1438    2.0432 H   0  0  0  0  0  0  0  0  0  0  0  0
    4.8568    6.1671    0.2678 H   0  0  0  0  0  0  0  0  0  0  0  0
    1.6096    7.9400   -0.3407 H   0  0  0  0  0  0  0  0  0  0  0  0
    1.9121    8.8071    1.2685 H   0  0  0  0  0  0  0  0  0  0  0  0
    0.1961    4.3533    2.8755 H   0  0  0  0  0  0  0  0  0  0  0  0
   -1.2856    3.1728    1.4251 H   0  0  0  0  0  0  0  0  0  0  0  0
   -3.6893    6.1100    1.5009 H   0  0  0  0  0  0  0  0  0  0  0  0
   -2.1435    7.4549    2.7451 H   0  0  0  0  0  0  0  0  0  0  0  0
   -2.2590    6.0921   -1.5858 H   0  0  0  0  0  0  0  0  0  0  0  0
   -0.0194    6.1074   -1.3282 H   0  0  0  0  0  0  0  0  0  0  0  0
   -0.6038    5.3017   -2.7931 H   0  0  0  0  0  0  0  0  0  0  0  0
    0.9249    4.0151   -0.5277 H   0  0  0  0  0  0  0  0  0  0  0  0
   -0.2179    3.1128   -1.5832 H   0  0  0  0  0  0  0  0  0  0  0  0
    1.6877    4.8569   -2.8651 H   0  0  0  0  0  0  0  0  0  0  0  0
    0.5335    3.5648   -4.3103 H   0  0  0  0  0  0  0  0  0  0  0  0
    0.3000    2.3094   -3.0950 H   0  0  0  0  0  0  0  0  0  0  0  0
    2.4792    2.7433   -5.0709 H   0  0  0  0  0  0  0  0  0  0  0  0
    1.6990    1.2489   -4.5392 H   0  0  0  0  0  0  0  0  0  0  0  0
    3.7403    2.6222   -2.8698 H   0  0  0  0  0  0  0  0  0  0  0  0
    4.2527    0.6157   -2.1134 H   0  0  0  0  0  0  0  0  0  0  0  0
    2.5009    0.4699   -2.1210 H   0  0  0  0  0  0  0  0  0  0  0  0
    2.4491   -0.5961   -4.1021 H   0  0  0  0  0  0  0  0  0  0  0  0
    3.1072   -1.4218   -1.5866 H   0  0  0  0  0  0  0  0  0  0  0  0
    4.5923   -1.9983   -2.4862 H   0  0  0  0  0  0  0  0  0  0  0  0
    3.3708   -3.4664   -3.7968 H   0  0  0  0  0  0  0  0  0  0  0  0
    1.8844   -2.4970   -3.6947 H   0  0  0  0  0  0  0  0  0  0  0  0
    2.9746   -4.5723   -1.9647 H   0  0  0  0  0  0  0  0  0  0  0  0
    0.3170   -3.5680   -2.7884 H   0  0  0  0  0  0  0  0  0  0  0  0
    1.2069   -4.9989   -3.3514 H   0  0  0  0  0  0  0  0  0  0  0  0
    1.1239   -5.8775   -0.9902 H   0  0  0  0  0  0  0  0  0  0  0  0
   -0.4001   -5.8374   -1.8935 H   0  0  0  0  0  0  0  0  0  0  0  0
    0.2109   -4.6793    0.5783 H   0  0  0  0  0  0  0  0  0  0  0  0
   -1.8586   -5.7253   -0.2056 H   0  0  0  0  0  0  0  0  0  0  0  0
   -1.9239   -4.1713    0.8008 H   0  0  0  0  0  0  0  0  0  0  0  0
   -2.6727   -4.6867   -2.0398 H   0  0  0  0  0  0  0  0  0  0  0  0
   -1.9088   -3.1396   -1.6563 H   0  0  0  0  0  0  0  0  0  0  0  0
   -4.1149   -2.8197   -1.7171 H   0  0  0  0  0  0  0  0  0  0  0  0
   -2.3771   -2.0538    0.1917 H   0  0  0  0  0  0  0  0  0  0  0  0
   -3.5159   -2.8985    1.2216 H   0  0  0  0  0  0  0  0  0  0  0  0
   -5.4144   -1.5680    0.2689 H   0  0  0  0  0  0  0  0  0  0  0  0
   -4.2420   -0.7685    1.3286 H   0  0  0  0  0  0  0  0  0  0  0  0
   -4.9745   -0.0678   -1.2357 H   0  0  0  0  0  0  0  0  0  0  0  0
   -2.9388    1.1398    0.5542 H   0  0  0  0  0  0  0  0  0  0  0  0
   -4.7003    1.2156    0.7581 H   0  0  0  0  0  0  0  0  0  0  0  0
   -4.6195    1.9107   -1.8550 H   0  0  0  0  0  0  0  0  0  0  0  0
   -4.6576    3.0859   -0.5258 H   0  0  0  0  0  0  0  0  0  0  0  0
   -2.3825    2.2220   -2.0796 H   0  0  0  0  0  0  0  0  0  0  0  0
   -2.5355    4.2162   -2.9196 H   0  0  0  0  0  0  0  0  0  0  0  0
   -3.8656    4.5208   -1.7543 H   0  0  0  0  0  0  0  0  0  0  0  0
   -6.8729   -3.6448    0.3731 H   0  0  0  0  0  0  0  0  0  0  0  0
   -6.6560   -4.6958    2.4973 H   0  0  0  0  0  0  0  0  0  0  0  0
   -4.7563   -7.6059    0.7454 H   0  0  0  0  0  0  0  0  0  0  0  0
   -5.0302   -6.4547   -1.3296 H   0  0  0  0  0  0  0  0  0  0  0  0
   -2.2049   -6.2540    4.1835 H   0  0  0  0  0  0  0  0  0  0  0  0
   -1.6160   -4.8535    3.1236 H   0  0  0  0  0  0  0  0  0  0  0  0
    5.0106   -2.6366   -5.6871 H   0  0  0  0  0  0  0  0  0  0  0  0
    4.8033   -1.6980   -7.8546 H   0  0  0  0  0  0  0  0  0  0  0  0
    6.1064    1.6985   -6.4772 H   0  0  0  0  0  0  0  0  0  0  0  0
    6.4980    0.5873   -4.3951 H   0  0  0  0  0  0  0  0  0  0  0  0
    1.8582    2.6234   -7.5784 H   0  0  0  0  0  0  0  0  0  0  0  0
    2.0052    1.6815   -9.0637 H   0  0  0  0  0  0  0  0  0  0  0  0
   -1.1056   -0.1046   -7.8200 H   0  0  0  0  0  0  0  0  0  0  0  0
    0.0749   -1.1353   -6.9923 H   0  0  0  0  0  0  0  0  0  0  0  0
   -1.8250    0.7081   -5.8647 H   0  0  0  0  0  0  0  0  0  0  0  0
    0.1350   -1.0596   -4.4957 H   0  0  0  0  0  0  0  0  0  0  0  0
   -1.3247   -1.6751   -5.3175 H   0  0  0  0  0  0  0  0  0  0  0  0
   -2.2476    0.4998   -3.8443 H   0  0  0  0  0  0  0  0  0  0  0  0
   -2.5671   -1.2031   -3.4800 H   0  0  0  0  0  0  0  0  0  0  0  0
   -0.5683   -1.3489   -2.5156 H   0  0  0  0  0  0  0  0  0  0  0  0
   -0.5066    1.0609    0.6080 H   0  0  0  0  0  0  0  0  0  0  0  0
    1.0171    1.2119   -0.2633 H   0  0  0  0  0  0  0  0  0  0  0  0
   -0.0788   -3.1215    2.5057 H   0  0  0  0  0  0  0  0  0  0  0  0
    0.6289   -2.6700    4.7363 H   0  0  0  0  0  0  0  0  0  0  0  0
    4.1517   -1.9451    3.5394 H   0  0  0  0  0  0  0  0  0  0  0  0
    3.4988   -2.2398    1.2494 H   0  0  0  0  0  0  0  0  0  0  0  0
  1  2  2  0
  2  3  1  0
  3  4  1  0
  4  5  1  0
  5  6  1  0
  6  7  1  0
  7  8  1  0
  8  9  1  0
  9 10  1  0
 10 11  1  0
 11 12  1  0
 12 13  1  0
 13 14  1  0
 14 15  1  0
 15 16  1  0
 16 17  1  0
 17 18  1  0
 18 19  2  0
 18 20  1  0
 20 21  1  0
 21 22  1  0
 22 23  2  0
 23 24  1  0
 24 25  2  0
 25 26  1  0
 26 27  2  0
 25 28  1  0
 28 29  1  0
 29 30  1  0
 30 31  1  0
 31 32  1  0
 32 33  1  0
 33 34  1  0
 34 35  1  0
 35 36  1  0
 36 37  1  0
 37 38  1  0
 38 39  1  0
 39 40  1  0
 40 41  1  0
 41 42  1  0
 42 43  1  0
 43 44  1  0
 44 45  1  0
 45 46  1  0
 46 47  1  0
 47 48  1  0
 48 49  1  0
 49 50  1  0
 50 51  1  0
 51 52  1  0
 45 53  1  0
 53 54  2  0
 54 55  1  0
 55 56  2  0
 56 57  1  0
 57 58  2  0
 56 59  1  0
 59 60  1  0
 36 61  1  0
 61 62  2  0
 62 63  1  0
 63 64  2  0
 64 65  1  0
 65 66  2  0
 64 67  1  0
 67 68  1  0
 68 69  1  0
 69 70  2  0
 69 71  1  0
 71 72  1  0
 72 73  1  0
 73 74  1  0
 74 75  1  0
 75 76  1  0
 76 77  2  0
 76 78  1  0
 78 79  1  0
 79 80  1  0
 80 81  2  0
 81 82  1  0
 82 83  2  0
 83 84  1  0
 84 85  2  0
 60  2  1  0
 66 61  1  0
 85 80  1  0
 83 11  1  0
 27 22  1  0
 52 28  1  0
 58 53  1  0
  3 86  1  0
  3 87  1  0
  4 88  1  0
  5 89  1  0
  5 90  1  0
  6 91  1  0
  6 92  1  0
  7 93  1  0
  8 94  1  0
  8 95  1  0
  9 96  1  0
  9 97  1  0
 10 98  1  0
 10 99  1  0
 11100  1  0
 12101  1  0
 12102  1  0
 13103  1  0
 14104  1  0
 14105  1  0
 15106  1  0
 15107  1  0
 16108  1  0
 17109  1  0
 17110  1  0
 20111  1  0
 20112  1  0
 23113  1  0
 24114  1  0
 26115  1  0
 27116  1  0
 28117  1  0
 29118  1  0
 29119  1  0
 30120  1  0
 30121  1  0
 31122  1  0
 32123  1  0
 32124  1  0
 33125  1  0
 33126  1  0
 34127  1  0
 35128  1  0
 35129  1  0
 36130  1  0
 37131  1  0
 37132  1  0
 38133  1  0
 38134  1  0
 39135  1  0
 40136  1  0
 40137  1  0
 41138  1  0
 41139  1  0
 42140  1  0
 43141  1  0
 43142  1  0
 44143  1  0
 44144  1  0
 45145  1  0
 46146  1  0
 46147  1  0
 47148  1  0
 47149  1  0
 48150  1  0
 49151  1  0
 49152  1  0
 50153  1  0
 50154  1  0
 51155  1  0
 52156  1  0
 52157  1  0
 54158  1  0
 55159  1  0
 57160  1  0
 58161  1  0
 60162  1  0
 60163  1  0
 62164  1  0
 63165  1  0
 65166  1  0
 66167  1  0
 68168  1  0
 68169  1  0
 71170  1  0
 71171  1  0
 72172  1  0
 73173  1  0
 73174  1  0
 74175  1  0
 74176  1  0
 75177  1  0
 78178  1  0
 78179  1  0
 81180  1  0
 82181  1  0
 84182  1  0
 85183  1  0
M  END
