
     RDKit          3D

141147  0  0  0  0  0  0  0  0999 V2000
   -3.2064    3.0867    0.9970 O   0  0  0  0  0  0  0  0  0  0  0  0
   -3.2201    2.4032    1.1869 C   0  0  0  0  0  0  0  0  0  0  0  0
   -3.1466    2.7416    2.6441 C   0  0  0  0  0  0  0  0  0  0  0  0
   -3.9517    1.8612    3.4525 N   0  0  0  0  0  0  0  0  0  0  0  0
   -3.3771    1.8587    4.7957 C   0  0  0  0  0  0  0  0  0  0  0  0
   -4.1775    0.9810    5.7263 C   0  0  0  0  0  0  0  0  0  0  0  0
   -3.8923   -0.4267    5.4577 N   0  0  0  0  0  0  0  0  0  0  0  0
   -3.7225   -1.6810    4.7849 C   0  0  0  0  0  0  0  0  0  0  0  0
   -4.5453   -2.2416    5.5709 O   0  0  0  0  0  0  0  0  0  0  0  0
   -3.6737   -2.7968    3.8298 C   0  0  0  0  0  0  0  0  0  0  0  0
   -2.3762   -3.4182    3.8599 O   0  0  0  0  0  0  0  0  0  0  0  0
   -1.1706   -4.2183    3.8806 C   0  0  0  0  0  0  0  0  0  0  0  0
   -0.4397   -4.6860    2.7451 C   0  0  0  0  0  0  0  0  0  0  0  0
    0.8007   -4.0622    2.5552 C   0  0  0  0  0  0  0  0  0  0  0  0
    1.1761   -3.0581    3.4957 C   0  0  0  0  0  0  0  0  0  0  0  0
    1.0295   -3.7679    4.7324 C   0  0  0  0  0  0  0  0  0  0  0  0
   -0.2437   -4.3005    4.9626 C   0  0  0  0  0  0  0  0  0  0  0  0
    1.2618   -1.5575    3.2083 C   0  0  0  0  0  0  0  0  0  0  0  0
    0.1542   -1.0238    2.4369 N   0  0  0  0  0  0  0  0  0  0  0  0
    0.2445    0.3913    2.3948 C   0  0  0  0  0  0  0  0  0  0  0  0
    1.4195    0.9356    1.6253 C   0  0  0  0  0  0  0  0  0  0  0  0
    1.0795    2.1624    0.9026 N   0  0  0  0  0  0  0  0  0  0  0  0
    1.3226    1.9353   -0.4964 C   0  0  0  0  0  0  0  0  0  0  0  0
    1.8169    3.1686   -1.1646 C   0  0  0  0  0  0  0  0  0  0  0  0
    2.9627    3.0937   -0.7856 O   0  0  0  0  0  0  0  0  0  0  0  0
    2.1092    4.1878   -2.1843 C   0  0  0  0  0  0  0  0  0  0  0  0
    0.9657    4.5017   -2.9951 O   0  0  0  0  0  0  0  0  0  0  0  0
   -0.1982    4.8588   -3.7755 C   0  0  0  0  0  0  0  0  0  0  0  0
   -0.1840    5.3575   -5.1114 C   0  0  0  0  0  0  0  0  0  0  0  0
   -0.7074    4.4919   -6.0798 C   0  0  0  0  0  0  0  0  0  0  0  0
   -1.0601    3.1826   -5.6263 C   0  0  0  0  0  0  0  0  0  0  0  0
   -1.9541    3.4758   -4.5536 C   0  0  0  0  0  0  0  0  0  0  0  0
   -1.5211    4.3694   -3.5648 C   0  0  0  0  0  0  0  0  0  0  0  0
   -0.3120    1.8597   -5.8157 C   0  0  0  0  0  0  0  0  0  0  0  0
   -1.1095    0.7661   -6.2873 N   0  0  0  0  0  0  0  0  0  0  0  0
   -2.0747    0.2520   -5.3791 C   0  0  0  0  0  0  0  0  0  0  0  0
   -1.7750   -1.1463   -4.8682 C   0  0  0  0  0  0  0  0  0  0  0  0
   -1.5834   -1.1513   -3.4326 N   0  0  0  0  0  0  0  0  0  0  0  0
   -2.0132   -2.3207   -2.7685 C   0  0  0  0  0  0  0  0  0  0  0  0
   -1.0380   -2.4009   -1.7272 N   0  0  0  0  0  0  0  0  0  0  0  0
    0.1413   -3.0800   -2.1978 C   0  0  0  0  0  0  0  0  0  0  0  0
    1.3255   -2.8286   -1.3373 C   0  0  0  0  0  0  0  0  0  0  0  0
    2.1134   -1.6898   -1.6809 N   0  0  0  0  0  0  0  0  0  0  0  0
    3.0013   -1.8474   -2.7830 C   0  0  0  0  0  0  0  0  0  0  0  0
    2.3050   -1.4386   -4.0037 N   0  0  0  0  0  0  0  0  0  0  0  0
    2.4081    0.0167   -4.0992 C   0  0  0  0  0  0  0  0  0  0  0  0
    1.5542    0.5825   -5.1862 C   0  0  0  0  0  0  0  0  0  0  0  0
    0.5898    1.5356   -4.7524 N   0  0  0  0  0  0  0  0  0  0  0  0
    4.3739   -1.1797   -2.6661 C   0  0  0  0  0  0  0  0  0  0  0  0
    5.6665   -1.7702   -2.8325 C   0  0  0  0  0  0  0  0  0  0  0  0
    6.3880   -1.9805   -1.6535 C   0  0  0  0  0  0  0  0  0  0  0  0
    5.7828   -1.4729   -0.4675 C   0  0  0  0  0  0  0  0  0  0  0  0
    5.4021   -0.1323   -0.7727 C   0  0  0  0  0  0  0  0  0  0  0  0
    4.6900    0.0243   -1.9681 C   0  0  0  0  0  0  0  0  0  0  0  0
    5.2319   -2.2711    0.6068 O   0  0  0  0  0  0  0  0  0  0  0  0
    4.7793   -3.0388    1.7348 C   0  0  0  0  0  0  0  0  0  0  0  0
    5.1588   -2.3676    3.0222 C   0  0  0  0  0  0  0  0  0  0  0  0
    5.9892   -1.6479    2.4707 O   0  0  0  0  0  0  0  0  0  0  0  0
    5.0637   -1.4670    4.2190 C   0  0  0  0  0  0  0  0  0  0  0  0
    4.3284   -0.2678    3.9564 N   0  0  0  0  0  0  0  0  0  0  0  0
    3.4249    0.1384    4.9899 C   0  0  0  0  0  0  0  0  0  0  0  0
    2.2952   -0.8038    5.2491 C   0  0  0  0  0  0  0  0  0  0  0  0
    1.1910   -0.6960    4.3341 N   0  0  0  0  0  0  0  0  0  0  0  0
   -3.4751   -2.3512   -2.3031 C   0  0  0  0  0  0  0  0  0  0  0  0
   -4.0070   -2.6935   -1.0223 C   0  0  0  0  0  0  0  0  0  0  0  0
   -4.4827   -1.6224   -0.2565 C   0  0  0  0  0  0  0  0  0  0  0  0
   -4.4844   -0.3480   -0.9007 C   0  0  0  0  0  0  0  0  0  0  0  0
   -5.1010   -0.5795   -2.1678 C   0  0  0  0  0  0  0  0  0  0  0  0
   -4.5670   -1.6504   -2.8942 C   0  0  0  0  0  0  0  0  0  0  0  0
   -3.6444    0.7763   -0.5479 O   0  0  0  0  0  0  0  0  0  0  0  0
   -2.8682    1.9323   -0.1929 C   0  0  0  0  0  0  0  0  0  0  0  0
   -3.4293    3.8153    2.7874 H   0  0  0  0  0  0  0  0  0  0  0  0
   -2.0988    2.6732    3.0319 H   0  0  0  0  0  0  0  0  0  0  0  0
   -4.8890    2.3326    3.5575 H   0  0  0  0  0  0  0  0  0  0  0  0
   -3.2363    2.8727    5.1978 H   0  0  0  0  0  0  0  0  0  0  0  0
   -2.3761    1.3693    4.6884 H   0  0  0  0  0  0  0  0  0  0  0  0
   -3.8643    1.1656    6.7627 H   0  0  0  0  0  0  0  0  0  0  0  0
   -5.2608    1.1659    5.5462 H   0  0  0  0  0  0  0  0  0  0  0  0
   -4.7174   -0.7217    6.0426 H   0  0  0  0  0  0  0  0  0  0  0  0
   -4.4531   -3.5526    4.1073 H   0  0  0  0  0  0  0  0  0  0  0  0
   -3.9378   -2.4721    2.8139 H   0  0  0  0  0  0  0  0  0  0  0  0
   -0.7334   -5.5073    2.0852 H   0  0  0  0  0  0  0  0  0  0  0  0
    1.3909   -4.4972    1.7441 H   0  0  0  0  0  0  0  0  0  0  0  0
    1.8106   -4.0063    5.4593 H   0  0  0  0  0  0  0  0  0  0  0  0
   -0.3869   -4.8353    5.9043 H   0  0  0  0  0  0  0  0  0  0  0  0
    2.2559   -1.2603    2.7872 H   0  0  0  0  0  0  0  0  0  0  0  0
    0.1869   -1.3866    1.4696 H   0  0  0  0  0  0  0  0  0  0  0  0
    0.1957    0.9073    3.3634 H   0  0  0  0  0  0  0  0  0  0  0  0
   -0.6594    0.7427    1.8315 H   0  0  0  0  0  0  0  0  0  0  0  0
    2.2722    1.2269    2.2857 H   0  0  0  0  0  0  0  0  0  0  0  0
    1.8470    0.1697    0.9303 H   0  0  0  0  0  0  0  0  0  0  0  0
    0.1076    2.4694    1.1016 H   0  0  0  0  0  0  0  0  0  0  0  0
    0.4696    1.4674   -1.0193 H   0  0  0  0  0  0  0  0  0  0  0  0
    2.1564    1.1967   -0.5598 H   0  0  0  0  0  0  0  0  0  0  0  0
    2.4449    5.1219   -1.6708 H   0  0  0  0  0  0  0  0  0  0  0  0
    2.9384    3.8229   -2.8029 H   0  0  0  0  0  0  0  0  0  0  0  0
    0.0805    6.3719   -5.4215 H   0  0  0  0  0  0  0  0  0  0  0  0
   -0.9143    4.9498   -7.0511 H   0  0  0  0  0  0  0  0  0  0  0  0
   -3.0006    3.1862   -4.4305 H   0  0  0  0  0  0  0  0  0  0  0  0
   -2.2096    4.6890   -2.7770 H   0  0  0  0  0  0  0  0  0  0  0  0
    0.4088    1.8733   -6.6729 H   0  0  0  0  0  0  0  0  0  0  0  0
   -1.4350    0.8963   -7.2582 H   0  0  0  0  0  0  0  0  0  0  0  0
   -2.2792    0.8626   -4.4928 H   0  0  0  0  0  0  0  0  0  0  0  0
   -3.0469    0.1776   -5.9305 H   0  0  0  0  0  0  0  0  0  0  0  0
   -0.8938   -1.5751   -5.3653 H   0  0  0  0  0  0  0  0  0  0  0  0
   -2.6221   -1.8511   -5.0636 H   0  0  0  0  0  0  0  0  0  0  0  0
   -0.7187   -0.6983   -3.1433 H   0  0  0  0  0  0  0  0  0  0  0  0
   -1.7857   -3.1956   -3.4321 H   0  0  0  0  0  0  0  0  0  0  0  0
   -1.3543   -2.8599   -0.8568 H   0  0  0  0  0  0  0  0  0  0  0  0
    0.2653   -2.8414   -3.2619 H   0  0  0  0  0  0  0  0  0  0  0  0
   -0.0891   -4.1747   -2.1504 H   0  0  0  0  0  0  0  0  0  0  0  0
    0.9998   -2.7865   -0.2915 H   0  0  0  0  0  0  0  0  0  0  0  0
    1.9951   -3.7226   -1.4227 H   0  0  0  0  0  0  0  0  0  0  0  0
    1.4372   -0.9032   -1.8743 H   0  0  0  0  0  0  0  0  0  0  0  0
    3.0069   -2.9368   -2.8666 H   0  0  0  0  0  0  0  0  0  0  0  0
    2.7290   -1.8640   -4.8523 H   0  0  0  0  0  0  0  0  0  0  0  0
    3.4831    0.2099   -4.3457 H   0  0  0  0  0  0  0  0  0  0  0  0
    2.2113    0.5074   -3.1382 H   0  0  0  0  0  0  0  0  0  0  0  0
    1.1110   -0.2868   -5.7358 H   0  0  0  0  0  0  0  0  0  0  0  0
    2.1872    1.0943   -5.9565 H   0  0  0  0  0  0  0  0  0  0  0  0
    0.1744    1.3954   -3.8294 H   0  0  0  0  0  0  0  0  0  0  0  0
    6.1885   -1.9975   -3.7648 H   0  0  0  0  0  0  0  0  0  0  0  0
    7.3916   -2.4041   -1.7415 H   0  0  0  0  0  0  0  0  0  0  0  0
    5.7211    0.7667   -0.2375 H   0  0  0  0  0  0  0  0  0  0  0  0
    4.5369    1.0603   -2.2795 H   0  0  0  0  0  0  0  0  0  0  0  0
    3.6989   -3.1965    1.6368 H   0  0  0  0  0  0  0  0  0  0  0  0
    5.2520   -4.0303    1.7735 H   0  0  0  0  0  0  0  0  0  0  0  0
    6.1165   -1.1540    4.4373 H   0  0  0  0  0  0  0  0  0  0  0  0
    4.7307   -2.0406    5.0932 H   0  0  0  0  0  0  0  0  0  0  0  0
    4.9422    0.5622    3.7456 H   0  0  0  0  0  0  0  0  0  0  0  0
    4.0059    0.2529    5.9288 H   0  0  0  0  0  0  0  0  0  0  0  0
    3.0442    1.1417    4.7260 H   0  0  0  0  0  0  0  0  0  0  0  0
    2.7256   -1.8101    5.3295 H   0  0  0  0  0  0  0  0  0  0  0  0
    1.8911   -0.5637    6.2655 H   0  0  0  0  0  0  0  0  0  0  0  0
    0.2597   -0.7532    4.7835 H   0  0  0  0  0  0  0  0  0  0  0  0
   -4.1748   -3.6940   -0.6137 H   0  0  0  0  0  0  0  0  0  0  0  0
   -4.9206   -1.8553    0.7174 H   0  0  0  0  0  0  0  0  0  0  0  0
   -5.9785   -0.0575   -2.5599 H   0  0  0  0  0  0  0  0  0  0  0  0
   -5.1309   -1.9082   -3.7952 H   0  0  0  0  0  0  0  0  0  0  0  0
   -1.8040    1.6955   -0.3064 H   0  0  0  0  0  0  0  0  0  0  0  0
   -3.0798    2.7897   -0.8475 H   0  0  0  0  0  0  0  0  0  0  0  0
  1  2  2  0
  2  3  1  0
  3  4  1  0
  4  5  1  0
  5  6  1  0
  6  7  1  0
  7  8  1  0
  8  9  2  0
  8 10  1  0
 10 11  1  0
 11 12  1  0
 12 13  2  0
 13 14  1  0
 14 15  2  0
 15 16  1  0
 16 17  2  0
 15 18  1  0
 18 19  1  0
 19 20  1  0
 20 21  1  0
 21 22  1  0
 22 23  1  0
 23 24  1  0
 24 25  2  0
 24 26  1  0
 26 27  1  0
 27 28  1  0
 28 29  2  0
 29 30  1  0
 30 31  2  0
 31 32  1  0
 32 33  2  0
 31 34  1  0
 34 35  1  0
 35 36  1  0
 36 37  1  0
 37 38  1  0
 38 39  1  0
 39 40  1  0
 40 41  1  0
 41 42  1  0
 42 43  1  0
 43 44  1  0
 44 45  1  0
 45 46  1  0
 46 47  1  0
 47 48  1  0
 44 49  1  0
 49 50  2  0
 50 51  1  0
 51 52  2  0
 52 53  1  0
 53 54  2  0
 52 55  1  0
 55 56  1  0
 56 57  1  0
 57 58  2  0
 57 59  1  0
 59 60  1  0
 60 61  1  0
 61 62  1  0
 62 63  1  0
 39 64  1  0
 64 65  2  0
 65 66  1  0
 66 67  2  0
 67 68  1  0
 68 69  2  0
 67 70  1  0
 70 71  1  0
 71  2  1  0
 17 12  1  0
 63 18  1  0
 69 64  1  0
 33 28  1  0
 48 34  1  0
 54 49  1  0
  3 72  1  0
  3 73  1  0
  4 74  1  0
  5 75  1  0
  5 76  1  0
  6 77  1  0
  6 78  1  0
  7 79  1  0
 10 80  1  0
 10 81  1  0
 13 82  1  0
 14 83  1  0
 16 84  1  0
 17 85  1  0
 18 86  1  0
 19 87  1  0
 20 88  1  0
 20 89  1  0
 21 90  1  0
 21 91  1  0
 22 92  1  0
 23 93  1  0
 23 94  1  0
 26 95  1  0
 26 96  1  0
 29 97  1  0
 30 98  1  0
 32 99  1  0
 33100  1  0
 34101  1  0
 35102  1  0
 36103  1  0
 36104  1  0
 37105  1  0
 37106  1  0
 38107  1  0
 39108  1  0
 40109  1  0
 41110  1  0
 41111  1  0
 42112  1  0
 42113  1  0
 43114  1  0
 44115  1  0
 45116  1  0
 46117  1  0
 46118  1  0
 47119  1  0
 47120  1  0
 48121  1  0
 50122  1  0
 51123  1  0
 53124  1  0
 54125  1  0
 56126  1  0
 56127  1  0
 59128  1  0
 59129  1  0
 60130  1  0
 61131  1  0
 61132  1  0
 62133  1  0
 62134  1  0
 63135  1  0
 65136  1  0
 66137  1  0
 68138  1  0
 69139  1  0
 71140  1  0
 71141  1  0
M  END
