
     RDKit          3D

129135  0  0  0  0  0  0  0  0999 V2000
   -0.6758   -4.9775   -0.2019 O   0  0  0  0  0  0  0  0  0  0  0  0
   -0.5433   -4.3181    0.1345 C   0  0  0  0  0  0  0  0  0  0  0  0
    0.3761   -4.8634    1.1844 C   0  0  0  0  0  0  0  0  0  0  0  0
    1.6590   -4.2095    1.1914 N   0  0  0  0  0  0  0  0  0  0  0  0
    1.8947   -3.3893    2.3523 C   0  0  0  0  0  0  0  0  0  0  0  0
    3.3537   -3.2169    2.6686 C   0  0  0  0  0  0  0  0  0  0  0  0
    3.6902   -1.8272    2.9703 N   0  0  0  0  0  0  0  0  0  0  0  0
    4.2948   -0.5262    2.9781 C   0  0  0  0  0  0  0  0  0  0  0  0
    4.3527   -0.3610    4.2135 O   0  0  0  0  0  0  0  0  0  0  0  0
    5.1476    0.6312    2.5604 C   0  0  0  0  0  0  0  0  0  0  0  0
    4.3645    1.7701    2.2417 N   0  0  0  0  0  0  0  0  0  0  0  0
    4.9951    2.7548    1.4190 C   0  0  0  0  0  0  0  0  0  0  0  0
    4.1179    3.9998    1.3523 C   0  0  0  0  0  0  0  0  0  0  0  0
    3.2418    3.9290    0.2152 N   0  0  0  0  0  0  0  0  0  0  0  0
    2.6815    5.1873   -0.1835 C   0  0  0  0  0  0  0  0  0  0  0  0
    1.1982    5.1193   -0.3957 C   0  0  0  0  0  0  0  0  0  0  0  0
    1.1939    5.7127   -1.4727 O   0  0  0  0  0  0  0  0  0  0  0  0
   -0.2818    4.8703   -0.4119 C   0  0  0  0  0  0  0  0  0  0  0  0
   -0.9298    5.7883    0.4901 N   0  0  0  0  0  0  0  0  0  0  0  0
   -1.6474    5.1015    1.5623 C   0  0  0  0  0  0  0  0  0  0  0  0
   -0.7645    4.7832    2.7411 C   0  0  0  0  0  0  0  0  0  0  0  0
    0.3173    3.9111    2.4601 N   0  0  0  0  0  0  0  0  0  0  0  0
    0.2236    2.5663    2.9217 C   0  0  0  0  0  0  0  0  0  0  0  0
   -0.9865    2.3070    3.6498 O   0  0  0  0  0  0  0  0  0  0  0  0
   -2.2192    2.0931    4.3822 C   0  0  0  0  0  0  0  0  0  0  0  0
   -2.3611    1.3292    5.5787 C   0  0  0  0  0  0  0  0  0  0  0  0
   -2.9857    0.0870    5.4021 C   0  0  0  0  0  0  0  0  0  0  0  0
   -3.3768   -0.2786    4.0727 C   0  0  0  0  0  0  0  0  0  0  0  0
   -4.1171    0.8717    3.6471 C   0  0  0  0  0  0  0  0  0  0  0  0
   -3.5231    2.1320    3.8041 C   0  0  0  0  0  0  0  0  0  0  0  0
   -2.6036   -1.1746    3.1745 N   0  0  0  0  0  0  0  0  0  0  0  0
   -1.7145   -1.9268    2.2708 C   0  0  0  0  0  0  0  0  0  0  0  0
   -2.3748   -2.1544    0.9308 C   0  0  0  0  0  0  0  0  0  0  0  0
   -1.3849   -2.0749   -0.1158 N   0  0  0  0  0  0  0  0  0  0  0  0
   -1.1469   -3.3228   -0.7858 C   0  0  0  0  0  0  0  0  0  0  0  0
   -2.3489   -3.8974   -1.3209 O   0  0  0  0  0  0  0  0  0  0  0  0
   -3.6249   -4.2793   -1.8997 C   0  0  0  0  0  0  0  0  0  0  0  0
   -4.8839   -4.2556   -1.2259 C   0  0  0  0  0  0  0  0  0  0  0  0
   -5.7139   -3.1926   -1.6110 C   0  0  0  0  0  0  0  0  0  0  0  0
   -5.2275   -2.2894   -2.6128 C   0  0  0  0  0  0  0  0  0  0  0  0
   -4.8162   -3.1966   -3.6438 C   0  0  0  0  0  0  0  0  0  0  0  0
   -3.9652   -4.2522   -3.2864 C   0  0  0  0  0  0  0  0  0  0  0  0
   -4.6317   -0.9530   -2.3559 N   0  0  0  0  0  0  0  0  0  0  0  0
   -3.8970    0.2857   -2.0498 C   0  0  0  0  0  0  0  0  0  0  0  0
   -4.6938    1.5006   -2.4069 C   0  0  0  0  0  0  0  0  0  0  0  0
   -3.8621    2.5428   -3.0330 N   0  0  0  0  0  0  0  0  0  0  0  0
   -3.1946    3.5265   -3.8981 C   0  0  0  0  0  0  0  0  0  0  0  0
   -1.9726    3.3663   -4.6229 C   0  0  0  0  0  0  0  0  0  0  0  0
   -0.9280    4.1853   -4.1872 C   0  0  0  0  0  0  0  0  0  0  0  0
   -1.2661    5.0636   -3.1168 C   0  0  0  0  0  0  0  0  0  0  0  0
   -2.4337    5.7505   -3.5547 C   0  0  0  0  0  0  0  0  0  0  0  0
   -3.4641    4.9271   -4.0143 C   0  0  0  0  0  0  0  0  0  0  0  0
   -0.7937    4.9735   -1.7505 O   0  0  0  0  0  0  0  0  0  0  0  0
    0.3641    1.5565    1.8136 C   0  0  0  0  0  0  0  0  0  0  0  0
   -0.8544    1.5282    1.6359 O   0  0  0  0  0  0  0  0  0  0  0  0
    0.6716    1.0646    0.4310 C   0  0  0  0  0  0  0  0  0  0  0  0
    1.6815    0.0558    0.3970 N   0  0  0  0  0  0  0  0  0  0  0  0
    2.5913    0.1949   -0.7355 C   0  0  0  0  0  0  0  0  0  0  0  0
    2.9959   -1.1180   -1.3295 C   0  0  0  0  0  0  0  0  0  0  0  0
    4.4399   -1.2261   -1.5927 N   0  0  0  0  0  0  0  0  0  0  0  0
    5.9241   -1.2193   -1.6427 C   0  0  0  0  0  0  0  0  0  0  0  0
    6.7212   -0.0462   -1.8350 C   0  0  0  0  0  0  0  0  0  0  0  0
    7.2852    0.5377   -0.6930 C   0  0  0  0  0  0  0  0  0  0  0  0
    7.0164   -0.1624    0.5179 C   0  0  0  0  0  0  0  0  0  0  0  0
    7.3891   -1.5149    0.2682 C   0  0  0  0  0  0  0  0  0  0  0  0
    6.7861   -2.0629   -0.8713 C   0  0  0  0  0  0  0  0  0  0  0  0
    6.0648    0.2612    1.5228 O   0  0  0  0  0  0  0  0  0  0  0  0
    0.4439   -5.9633    1.0271 H   0  0  0  0  0  0  0  0  0  0  0  0
   -0.0542   -4.7393    2.2067 H   0  0  0  0  0  0  0  0  0  0  0  0
    2.3880   -4.9375    1.1069 H   0  0  0  0  0  0  0  0  0  0  0  0
    1.4456   -3.9369    3.2198 H   0  0  0  0  0  0  0  0  0  0  0  0
    1.3958   -2.4123    2.3239 H   0  0  0  0  0  0  0  0  0  0  0  0
    3.9135   -3.5863    1.7719 H   0  0  0  0  0  0  0  0  0  0  0  0
    3.6886   -3.8765    3.5046 H   0  0  0  0  0  0  0  0  0  0  0  0
    3.7078   -1.9236    4.0018 H   0  0  0  0  0  0  0  0  0  0  0  0
    5.7870    0.8832    3.4433 H   0  0  0  0  0  0  0  0  0  0  0  0
    4.0078    2.1965    3.1177 H   0  0  0  0  0  0  0  0  0  0  0  0
    5.0298    2.3705    0.3897 H   0  0  0  0  0  0  0  0  0  0  0  0
    6.0094    3.0431    1.7940 H   0  0  0  0  0  0  0  0  0  0  0  0
    3.6146    4.1942    2.3075 H   0  0  0  0  0  0  0  0  0  0  0  0
    4.8099    4.8584    1.1750 H   0  0  0  0  0  0  0  0  0  0  0  0
    3.7618    3.4988   -0.5787 H   0  0  0  0  0  0  0  0  0  0  0  0
    3.1732    5.6313   -1.0618 H   0  0  0  0  0  0  0  0  0  0  0  0
    2.8274    5.8977    0.6655 H   0  0  0  0  0  0  0  0  0  0  0  0
   -0.5373    3.8685   -0.0414 H   0  0  0  0  0  0  0  0  0  0  0  0
   -0.2551    6.4306    0.9641 H   0  0  0  0  0  0  0  0  0  0  0  0
   -2.0040    4.1455    1.1479 H   0  0  0  0  0  0  0  0  0  0  0  0
   -2.5188    5.6712    1.9202 H   0  0  0  0  0  0  0  0  0  0  0  0
   -0.3263    5.7658    3.0574 H   0  0  0  0  0  0  0  0  0  0  0  0
   -1.4203    4.4867    3.5728 H   0  0  0  0  0  0  0  0  0  0  0  0
    1.2503    4.3377    2.6502 H   0  0  0  0  0  0  0  0  0  0  0  0
    1.1144    2.3839    3.5750 H   0  0  0  0  0  0  0  0  0  0  0  0
   -2.0840    1.6554    6.5851 H   0  0  0  0  0  0  0  0  0  0  0  0
   -3.1963   -0.4406    6.3349 H   0  0  0  0  0  0  0  0  0  0  0  0
   -5.1527    0.9128    3.3006 H   0  0  0  0  0  0  0  0  0  0  0  0
   -4.0998    3.0327    3.5740 H   0  0  0  0  0  0  0  0  0  0  0  0
   -3.2347   -2.0031    3.2044 H   0  0  0  0  0  0  0  0  0  0  0  0
   -0.7657   -1.4131    2.0828 H   0  0  0  0  0  0  0  0  0  0  0  0
   -1.5608   -2.9382    2.7167 H   0  0  0  0  0  0  0  0  0  0  0  0
   -2.9189   -3.1100    0.9321 H   0  0  0  0  0  0  0  0  0  0  0  0
   -3.0888   -1.3117    0.7464 H   0  0  0  0  0  0  0  0  0  0  0  0
   -1.5072   -1.2767   -0.7589 H   0  0  0  0  0  0  0  0  0  0  0  0
   -0.4000   -3.1232   -1.5755 H   0  0  0  0  0  0  0  0  0  0  0  0
   -5.2346   -4.9866   -0.4924 H   0  0  0  0  0  0  0  0  0  0  0  0
   -6.7058   -3.2241   -1.1551 H   0  0  0  0  0  0  0  0  0  0  0  0
   -5.1424   -3.2308   -4.6852 H   0  0  0  0  0  0  0  0  0  0  0  0
   -3.6511   -4.9827   -4.0372 H   0  0  0  0  0  0  0  0  0  0  0  0
   -5.4427   -0.3766   -2.7025 H   0  0  0  0  0  0  0  0  0  0  0  0
   -2.9414    0.3558   -2.5867 H   0  0  0  0  0  0  0  0  0  0  0  0
   -3.6460    0.3667   -0.9765 H   0  0  0  0  0  0  0  0  0  0  0  0
   -5.1915    1.9120   -1.5188 H   0  0  0  0  0  0  0  0  0  0  0  0
   -5.5117    1.2402   -3.1252 H   0  0  0  0  0  0  0  0  0  0  0  0
   -3.3739    2.6652   -2.1462 H   0  0  0  0  0  0  0  0  0  0  0  0
   -1.7709    2.7447   -5.4885 H   0  0  0  0  0  0  0  0  0  0  0  0
    0.0171    4.1367   -4.7273 H   0  0  0  0  0  0  0  0  0  0  0  0
   -2.5718    6.8287   -3.6380 H   0  0  0  0  0  0  0  0  0  0  0  0
   -4.3321    5.4198   -4.4332 H   0  0  0  0  0  0  0  0  0  0  0  0
   -0.2510    0.7142   -0.0976 H   0  0  0  0  0  0  0  0  0  0  0  0
    1.0387    1.8960   -0.2259 H   0  0  0  0  0  0  0  0  0  0  0  0
    1.3490   -0.9170    0.4551 H   0  0  0  0  0  0  0  0  0  0  0  0
    3.5125    0.7365   -0.4786 H   0  0  0  0  0  0  0  0  0  0  0  0
    2.0449    0.8561   -1.4565 H   0  0  0  0  0  0  0  0  0  0  0  0
    2.4463   -1.1848   -2.3027 H   0  0  0  0  0  0  0  0  0  0  0  0
    2.6189   -1.9403   -0.7128 H   0  0  0  0  0  0  0  0  0  0  0  0
    4.2506   -1.7344   -2.4983 H   0  0  0  0  0  0  0  0  0  0  0  0
    7.0358    0.4111   -2.7756 H   0  0  0  0  0  0  0  0  0  0  0  0
    7.9361    1.4096   -0.8040 H   0  0  0  0  0  0  0  0  0  0  0  0
    8.1231   -2.0987    0.8305 H   0  0  0  0  0  0  0  0  0  0  0  0
    7.1505   -3.0630   -1.1182 H   0  0  0  0  0  0  0  0  0  0  0  0
  1  2  2  0
  2  3  1  0
  3  4  1  0
  4  5  1  0
  5  6  1  0
  6  7  1  0
  7  8  1  0
  8  9  2  0
  8 10  1  0
 10 11  1  0
 11 12  1  0
 12 13  1  0
 13 14  1  0
 14 15  1  0
 15 16  1  0
 16 17  2  0
 16 18  1  0
 18 19  1  0
 19 20  1  0
 20 21  1  0
 21 22  1  0
 22 23  1  0
 23 24  1  0
 24 25  1  0
 25 26  2  0
 26 27  1  0
 27 28  2  0
 28 29  1  0
 29 30  2  0
 28 31  1  0
 31 32  1  0
 32 33  1  0
 33 34  1  0
 34 35  1  0
 35 36  1  0
 36 37  1  0
 37 38  2  0
 38 39  1  0
 39 40  2  0
 40 41  1  0
 41 42  2  0
 40 43  1  0
 43 44  1  0
 44 45  1  0
 45 46  1  0
 46 47  1  0
 47 48  1  0
 48 49  2  0
 49 50  1  0
 50 51  2  0
 51 52  1  0
 50 53  1  0
 23 54  1  0
 54 55  2  0
 54 56  1  0
 56 57  1  0
 57 58  1  0
 58 59  1  0
 59 60  1  0
 60 61  1  0
 61 62  2  0
 62 63  1  0
 63 64  2  0
 64 65  1  0
 65 66  2  0
 64 67  1  0
 35  2  1  0
 42 37  1  0
 52 47  2  0
 66 61  1  0
 67 10  1  0
 53 18  1  0
 30 25  1  0
  3 68  1  0
  3 69  1  0
  4 70  1  0
  5 71  1  0
  5 72  1  0
  6 73  1  0
  6 74  1  0
  7 75  1  0
 10 76  1  0
 11 77  1  0
 12 78  1  0
 12 79  1  0
 13 80  1  0
 13 81  1  0
 14 82  1  0
 15 83  1  0
 15 84  1  0
 18 85  1  0
 19 86  1  0
 20 87  1  0
 20 88  1  0
 21 89  1  0
 21 90  1  0
 22 91  1  0
 23 92  1  0
 26 93  1  0
 27 94  1  0
 29 95  1  0
 30 96  1  0
 31 97  1  0
 32 98  1  0
 32 99  1  0
 33100  1  0
 33101  1  0
 34102  1  0
 35103  1  0
 38104  1  0
 39105  1  0
 41106  1  0
 42107  1  0
 43108  1  0
 44109  1  0
 44110  1  0
 45111  1  0
 45112  1  0
 46113  1  0
 48114  1  0
 49115  1  0
 51116  1  0
 52117  1  0
 56118  1  0
 56119  1  0
 57120  1  0
 58121  1  0
 58122  1  0
 59123  1  0
 59124  1  0
 60125  1  0
 62126  1  0
 63127  1  0
 65128  1  0
 66129  1  0
M  END
