
     RDKit          3D

184190  0  0  0  0  0  0  0  0999 V2000
   -6.3805   -1.2644    0.5300 O   0  0  0  0  0  0  0  0  0  0  0  0
   -6.4254   -1.3807    0.5795 C   0  0  0  0  0  0  0  0  0  0  0  0
   -7.6647   -1.0953   -0.1733 C   0  0  0  0  0  0  0  0  0  0  0  0
   -7.5231    0.1946   -0.8502 N   0  0  0  0  0  0  0  0  0  0  0  0
   -6.4431    0.2124   -1.7952 C   0  0  0  0  0  0  0  0  0  0  0  0
   -5.6958    1.5421   -1.8172 C   0  0  0  0  0  0  0  0  0  0  0  0
   -4.9977    1.8131   -0.6104 N   0  0  0  0  0  0  0  0  0  0  0  0
   -3.6376    2.2360   -0.7216 C   0  0  0  0  0  0  0  0  0  0  0  0
   -2.6499    1.1099   -0.6288 C   0  0  0  0  0  0  0  0  0  0  0  0
   -3.1914    0.6058   -1.6175 O   0  0  0  0  0  0  0  0  0  0  0  0
   -1.7021   -0.0109   -0.5137 C   0  0  0  0  0  0  0  0  0  0  0  0
   -0.3382    0.3039    0.0272 C   0  0  0  0  0  0  0  0  0  0  0  0
    0.6623   -0.5611   -0.6813 C   0  0  0  0  0  0  0  0  0  0  0  0
    1.7073   -1.1020    0.0898 N   0  0  0  0  0  0  0  0  0  0  0  0
    2.2930   -2.3256   -0.3223 C   0  0  0  0  0  0  0  0  0  0  0  0
    1.8660   -2.8308   -1.6703 C   0  0  0  0  0  0  0  0  0  0  0  0
    2.8363   -3.6933   -2.2966 N   0  0  0  0  0  0  0  0  0  0  0  0
    3.2455   -3.2085   -3.6121 C   0  0  0  0  0  0  0  0  0  0  0  0
    3.5006   -1.7628   -3.6480 C   0  0  0  0  0  0  0  0  0  0  0  0
    4.1960   -1.8080   -4.6366 O   0  0  0  0  0  0  0  0  0  0  0  0
    3.9604   -0.4668   -3.1266 C   0  0  0  0  0  0  0  0  0  0  0  0
    3.6888    0.6999   -4.0129 C   0  0  0  0  0  0  0  0  0  0  0  0
    4.0950    1.8850   -3.1169 C   0  0  0  0  0  0  0  0  0  0  0  0
    3.4712    1.8813   -1.8268 N   0  0  0  0  0  0  0  0  0  0  0  0
    4.3385    1.8087   -0.6961 C   0  0  0  0  0  0  0  0  0  0  0  0
    4.1258    2.7603    0.4173 C   0  0  0  0  0  0  0  0  0  0  0  0
    3.0887    2.5603    1.3379 N   0  0  0  0  0  0  0  0  0  0  0  0
    3.2497    1.7668    2.4748 C   0  0  0  0  0  0  0  0  0  0  0  0
    2.9202    2.3304    3.8193 C   0  0  0  0  0  0  0  0  0  0  0  0
    3.2032    1.2918    4.8720 C   0  0  0  0  0  0  0  0  0  0  0  0
    4.1058    0.1992    4.3815 C   0  0  0  0  0  0  0  0  0  0  0  0
    4.7127    0.1339    5.4504 O   0  0  0  0  0  0  0  0  0  0  0  0
    4.6571   -1.1217    3.9267 C   0  0  0  0  0  0  0  0  0  0  0  0
    3.7231   -1.8676    3.1334 N   0  0  0  0  0  0  0  0  0  0  0  0
    3.4459   -3.1886    3.6063 C   0  0  0  0  0  0  0  0  0  0  0  0
    2.0395   -3.4218    4.0536 C   0  0  0  0  0  0  0  0  0  0  0  0
    1.0325   -3.0653    3.0907 N   0  0  0  0  0  0  0  0  0  0  0  0
    0.5601   -1.7470    3.3263 C   0  0  0  0  0  0  0  0  0  0  0  0
    0.1247   -1.0027    2.1338 C   0  0  0  0  0  0  0  0  0  0  0  0
   -0.6527   -1.8287    1.7590 O   0  0  0  0  0  0  0  0  0  0  0  0
   -0.3621    0.2057    1.4878 C   0  0  0  0  0  0  0  0  0  0  0  0
    1.5923    2.9165    4.0228 C   0  0  0  0  0  0  0  0  0  0  0  0
    0.5664    2.0916    4.7448 C   0  0  0  0  0  0  0  0  0  0  0  0
   -0.2325    3.0316    4.7173 O   0  0  0  0  0  0  0  0  0  0  0  0
   -0.4306    1.2427    5.4860 C   0  0  0  0  0  0  0  0  0  0  0  0
   -1.6382    1.0561    4.7552 N   0  0  0  0  0  0  0  0  0  0  0  0
   -2.7193    0.4128    5.3280 C   0  0  0  0  0  0  0  0  0  0  0  0
   -3.1547   -0.9257    4.8536 C   0  0  0  0  0  0  0  0  0  0  0  0
   -3.7476   -0.9493    3.5176 N   0  0  0  0  0  0  0  0  0  0  0  0
   -3.9381   -2.3422    3.1943 C   0  0  0  0  0  0  0  0  0  0  0  0
   -4.6811   -2.5999    1.8950 C   0  0  0  0  0  0  0  0  0  0  0  0
   -5.0350   -1.3930    1.1410 C   0  0  0  0  0  0  0  0  0  0  0  0
   -3.8522   -3.6103    1.1102 C   0  0  0  0  0  0  0  0  0  0  0  0
   -3.8135   -3.3475   -0.3654 C   0  0  0  0  0  0  0  0  0  0  0  0
   -4.9251   -3.8462   -0.5418 O   0  0  0  0  0  0  0  0  0  0  0  0
   -3.6159   -3.1138   -1.8296 C   0  0  0  0  0  0  0  0  0  0  0  0
   -2.2508   -3.2532   -2.2525 N   0  0  0  0  0  0  0  0  0  0  0  0
   -2.0102   -3.3121   -3.6317 C   0  0  0  0  0  0  0  0  0  0  0  0
   -1.7017   -2.0660   -4.3830 C   0  0  0  0  0  0  0  0  0  0  0  0
   -0.5046   -1.3992   -4.1468 N   0  0  0  0  0  0  0  0  0  0  0  0
    0.4264   -1.1976   -5.2041 C   0  0  0  0  0  0  0  0  0  0  0  0
    1.5300   -0.2658   -4.8852 C   0  0  0  0  0  0  0  0  0  0  0  0
    1.7087    0.0291   -6.0665 O   0  0  0  0  0  0  0  0  0  0  0  0
    2.2795    0.8955   -4.3713 C   0  0  0  0  0  0  0  0  0  0  0  0
   -5.9426   -3.2989    2.3211 C   0  0  0  0  0  0  0  0  0  0  0  0
   -6.9461   -2.5722    2.9588 C   0  0  0  0  0  0  0  0  0  0  0  0
   -8.1446   -3.2027    3.2706 C   0  0  0  0  0  0  0  0  0  0  0  0
   -8.1557   -4.5778    3.4634 C   0  0  0  0  0  0  0  0  0  0  0  0
   -6.9894   -5.2695    3.1688 C   0  0  0  0  0  0  0  0  0  0  0  0
   -5.8420   -4.6238    2.7311 C   0  0  0  0  0  0  0  0  0  0  0  0
    3.9335    3.4226    4.0212 C   0  0  0  0  0  0  0  0  0  0  0  0
    5.2578    3.0947    4.2714 C   0  0  0  0  0  0  0  0  0  0  0  0
    6.0432    4.0960    4.8204 C   0  0  0  0  0  0  0  0  0  0  0  0
    5.5677    5.3808    4.9729 C   0  0  0  0  0  0  0  0  0  0  0  0
    4.3794    5.7448    4.3533 C   0  0  0  0  0  0  0  0  0  0  0  0
    3.5378    4.7480    3.8766 C   0  0  0  0  0  0  0  0  0  0  0  0
    4.6583    0.7526   -5.1378 C   0  0  0  0  0  0  0  0  0  0  0  0
    6.0142    0.6504   -4.8508 C   0  0  0  0  0  0  0  0  0  0  0  0
    6.8529    0.3741   -5.9235 C   0  0  0  0  0  0  0  0  0  0  0  0
    6.5271    0.8487   -7.1876 C   0  0  0  0  0  0  0  0  0  0  0  0
    5.2376    1.3405   -7.3472 C   0  0  0  0  0  0  0  0  0  0  0  0
    4.3875    1.5237   -6.2641 C   0  0  0  0  0  0  0  0  0  0  0  0
   -0.1997    1.7607   -0.3291 C   0  0  0  0  0  0  0  0  0  0  0  0
   -0.5394    2.7116    0.6297 C   0  0  0  0  0  0  0  0  0  0  0  0
   -0.3822    4.0684    0.3765 C   0  0  0  0  0  0  0  0  0  0  0  0
   -0.1816    4.4974   -0.9283 C   0  0  0  0  0  0  0  0  0  0  0  0
   -0.1435    3.5418   -1.9365 C   0  0  0  0  0  0  0  0  0  0  0  0
   -0.4253    2.2173   -1.6240 C   0  0  0  0  0  0  0  0  0  0  0  0
   -8.5349   -0.9714    0.5119 H   0  0  0  0  0  0  0  0  0  0  0  0
   -7.8978   -1.8746   -0.9111 H   0  0  0  0  0  0  0  0  0  0  0  0
   -8.4149    0.3948   -1.3716 H   0  0  0  0  0  0  0  0  0  0  0  0
   -6.8414    0.0860   -2.8337 H   0  0  0  0  0  0  0  0  0  0  0  0
   -5.7853   -0.6449   -1.6112 H   0  0  0  0  0  0  0  0  0  0  0  0
   -5.1105    1.6314   -2.7429 H   0  0  0  0  0  0  0  0  0  0  0  0
   -6.5057    2.3120   -1.9087 H   0  0  0  0  0  0  0  0  0  0  0  0
   -5.5755    2.3550    0.0538 H   0  0  0  0  0  0  0  0  0  0  0  0
   -3.5042    3.0051    0.0459 H   0  0  0  0  0  0  0  0  0  0  0  0
   -3.5270    2.7176   -1.7262 H   0  0  0  0  0  0  0  0  0  0  0  0
   -2.1255   -0.7686    0.1488 H   0  0  0  0  0  0  0  0  0  0  0  0
   -1.5631   -0.4566   -1.5015 H   0  0  0  0  0  0  0  0  0  0  0  0
    1.0778    0.0351   -1.5056 H   0  0  0  0  0  0  0  0  0  0  0  0
    0.1341   -1.4195   -1.1719 H   0  0  0  0  0  0  0  0  0  0  0  0
    2.3932   -0.3813    0.3483 H   0  0  0  0  0  0  0  0  0  0  0  0
    2.2009   -3.1737    0.3651 H   0  0  0  0  0  0  0  0  0  0  0  0
    3.3970   -2.1444   -0.4112 H   0  0  0  0  0  0  0  0  0  0  0  0
    0.8427   -3.2837   -1.6413 H   0  0  0  0  0  0  0  0  0  0  0  0
    1.7813   -1.9304   -2.2916 H   0  0  0  0  0  0  0  0  0  0  0  0
    2.3831   -4.6282   -2.4506 H   0  0  0  0  0  0  0  0  0  0  0  0
    4.1098   -3.8314   -3.9167 H   0  0  0  0  0  0  0  0  0  0  0  0
    2.4196   -3.4646   -4.3209 H   0  0  0  0  0  0  0  0  0  0  0  0
    5.0442   -0.4939   -2.8468 H   0  0  0  0  0  0  0  0  0  0  0  0
    3.4470   -0.2149   -2.1805 H   0  0  0  0  0  0  0  0  0  0  0  0
    5.1828    1.8718   -2.9754 H   0  0  0  0  0  0  0  0  0  0  0  0
    3.8598    2.8006   -3.7057 H   0  0  0  0  0  0  0  0  0  0  0  0
    2.8954    2.7361   -1.7453 H   0  0  0  0  0  0  0  0  0  0  0  0
    5.3750    1.9861   -1.0864 H   0  0  0  0  0  0  0  0  0  0  0  0
    4.4019    0.7871   -0.2394 H   0  0  0  0  0  0  0  0  0  0  0  0
    4.0055    3.7794   -0.0336 H   0  0  0  0  0  0  0  0  0  0  0  0
    5.0905    2.8289    0.9844 H   0  0  0  0  0  0  0  0  0  0  0  0
    2.4946    3.4001    1.4921 H   0  0  0  0  0  0  0  0  0  0  0  0
    2.6112    0.8530    2.3722 H   0  0  0  0  0  0  0  0  0  0  0  0
    4.2895    1.3815    2.5217 H   0  0  0  0  0  0  0  0  0  0  0  0
    3.6550    1.8003    5.7616 H   0  0  0  0  0  0  0  0  0  0  0  0
    2.2722    0.8161    5.2729 H   0  0  0  0  0  0  0  0  0  0  0  0
    5.5950   -0.8644    3.3721 H   0  0  0  0  0  0  0  0  0  0  0  0
    4.9803   -1.7409    4.7822 H   0  0  0  0  0  0  0  0  0  0  0  0
    4.1597   -1.9698    2.1786 H   0  0  0  0  0  0  0  0  0  0  0  0
    3.6965   -3.9903    2.8671 H   0  0  0  0  0  0  0  0  0  0  0  0
    4.1053   -3.3783    4.4795 H   0  0  0  0  0  0  0  0  0  0  0  0
    1.8882   -2.8339    4.9933 H   0  0  0  0  0  0  0  0  0  0  0  0
    1.9428   -4.4801    4.3365 H   0  0  0  0  0  0  0  0  0  0  0  0
    0.2606   -3.7631    3.0951 H   0  0  0  0  0  0  0  0  0  0  0  0
    1.3557   -1.2175    3.9146 H   0  0  0  0  0  0  0  0  0  0  0  0
   -0.2532   -1.8711    4.0895 H   0  0  0  0  0  0  0  0  0  0  0  0
    0.2639    1.0594    1.8600 H   0  0  0  0  0  0  0  0  0  0  0  0
   -1.4005    0.4782    1.8146 H   0  0  0  0  0  0  0  0  0  0  0  0
    1.6913    3.8076    4.6997 H   0  0  0  0  0  0  0  0  0  0  0  0
    1.2164    3.3327    3.0801 H   0  0  0  0  0  0  0  0  0  0  0  0
   -0.6272    1.7900    6.4378 H   0  0  0  0  0  0  0  0  0  0  0  0
   -0.0136    0.2640    5.7682 H   0  0  0  0  0  0  0  0  0  0  0  0
   -1.8171    1.8078    4.0648 H   0  0  0  0  0  0  0  0  0  0  0  0
   -2.5451    0.3051    6.4303 H   0  0  0  0  0  0  0  0  0  0  0  0
   -3.6186    1.0804    5.2673 H   0  0  0  0  0  0  0  0  0  0  0  0
   -2.4211   -1.7392    5.0010 H   0  0  0  0  0  0  0  0  0  0  0  0
   -4.0004   -1.2211    5.5328 H   0  0  0  0  0  0  0  0  0  0  0  0
   -4.6631   -0.4385    3.6380 H   0  0  0  0  0  0  0  0  0  0  0  0
   -2.9337   -2.8175    3.1999 H   0  0  0  0  0  0  0  0  0  0  0  0
   -4.4572   -2.7849    4.0818 H   0  0  0  0  0  0  0  0  0  0  0  0
   -4.8850   -0.4245    1.6351 H   0  0  0  0  0  0  0  0  0  0  0  0
   -4.3973   -1.3489    0.2217 H   0  0  0  0  0  0  0  0  0  0  0  0
   -2.8251   -3.7132    1.5250 H   0  0  0  0  0  0  0  0  0  0  0  0
   -4.2855   -4.6406    1.1791 H   0  0  0  0  0  0  0  0  0  0  0  0
   -4.2075   -3.8631   -2.4149 H   0  0  0  0  0  0  0  0  0  0  0  0
   -3.9783   -2.1266   -2.1555 H   0  0  0  0  0  0  0  0  0  0  0  0
   -1.8822   -4.1221   -1.7814 H   0  0  0  0  0  0  0  0  0  0  0  0
   -1.1715   -4.0286   -3.8258 H   0  0  0  0  0  0  0  0  0  0  0  0
   -2.8979   -3.7845   -4.1259 H   0  0  0  0  0  0  0  0  0  0  0  0
   -1.7640   -2.3279   -5.4713 H   0  0  0  0  0  0  0  0  0  0  0  0
   -2.5695   -1.3740   -4.2262 H   0  0  0  0  0  0  0  0  0  0  0  0
   -0.6732   -0.4739   -3.7135 H   0  0  0  0  0  0  0  0  0  0  0  0
   -0.1362   -0.7614   -6.0684 H   0  0  0  0  0  0  0  0  0  0  0  0
    0.8574   -2.1505   -5.6011 H   0  0  0  0  0  0  0  0  0  0  0  0
    1.7996    1.2459   -3.4211 H   0  0  0  0  0  0  0  0  0  0  0  0
    2.1073    1.7242   -5.0680 H   0  0  0  0  0  0  0  0  0  0  0  0
   -6.8421   -1.5123    3.1979 H   0  0  0  0  0  0  0  0  0  0  0  0
   -8.9897   -2.6669    3.6973 H   0  0  0  0  0  0  0  0  0  0  0  0
   -8.9804   -5.0913    3.9572 H   0  0  0  0  0  0  0  0  0  0  0  0
   -6.9192   -6.2994    3.5231 H   0  0  0  0  0  0  0  0  0  0  0  0
   -4.9050   -5.0882    3.0439 H   0  0  0  0  0  0  0  0  0  0  0  0
    5.6744    2.2499    3.7278 H   0  0  0  0  0  0  0  0  0  0  0  0
    7.0315    3.8120    5.1379 H   0  0  0  0  0  0  0  0  0  0  0  0
    6.1141    6.1015    5.5790 H   0  0  0  0  0  0  0  0  0  0  0  0
    3.9868    6.7393    4.5717 H   0  0  0  0  0  0  0  0  0  0  0  0
    2.6194    5.0237    3.3547 H   0  0  0  0  0  0  0  0  0  0  0  0
    6.4334    0.5454   -3.8775 H   0  0  0  0  0  0  0  0  0  0  0  0
    7.9146    0.1840   -5.7564 H   0  0  0  0  0  0  0  0  0  0  0  0
    7.2810    0.9529   -7.9660 H   0  0  0  0  0  0  0  0  0  0  0  0
    5.0035    1.7308   -8.3348 H   0  0  0  0  0  0  0  0  0  0  0  0
    3.5834    2.2281   -6.3205 H   0  0  0  0  0  0  0  0  0  0  0  0
   -1.1324    2.4764    1.5160 H   0  0  0  0  0  0  0  0  0  0  0  0
   -0.3392    4.7494    1.2272 H   0  0  0  0  0  0  0  0  0  0  0  0
   -0.2564    5.5649   -1.1427 H   0  0  0  0  0  0  0  0  0  0  0  0
   -0.1000    3.9200   -2.9379 H   0  0  0  0  0  0  0  0  0  0  0  0
   -0.3492    1.4868   -2.4092 H   0  0  0  0  0  0  0  0  0  0  0  0
  1  2  2  0
  2  3  1  0
  3  4  1  0
  4  5  1  0
  5  6  1  0
  6  7  1  0
  7  8  1  0
  8  9  1  0
  9 10  2  0
  9 11  1  0
 11 12  1  0
 12 13  1  0
 13 14  1  0
 14 15  1  0
 15 16  1  0
 16 17  1  0
 17 18  1  0
 18 19  1  0
 19 20  2  0
 19 21  1  0
 21 22  1  0
 22 23  1  0
 23 24  1  0
 24 25  1  0
 25 26  1  0
 26 27  1  0
 27 28  1  0
 28 29  1  0
 29 30  1  0
 30 31  1  0
 31 32  2  0
 31 33  1  0
 33 34  1  0
 34 35  1  0
 35 36  1  0
 36 37  1  0
 37 38  1  0
 38 39  1  0
 39 40  2  0
 39 41  1  0
 29 42  1  0
 42 43  1  0
 43 44  2  0
 43 45  1  0
 45 46  1  0
 46 47  1  0
 47 48  1  0
 48 49  1  0
 49 50  1  0
 50 51  1  0
 51 52  1  0
 51 53  1  0
 53 54  1  0
 54 55  2  0
 54 56  1  0
 56 57  1  0
 57 58  1  0
 58 59  1  0
 59 60  1  0
 60 61  1  0
 61 62  1  0
 62 63  2  0
 62 64  1  0
 51 65  1  0
 65 66  2  0
 66 67  1  0
 67 68  2  0
 68 69  1  0
 69 70  2  0
 29 71  1  0
 71 72  2  0
 72 73  1  0
 73 74  2  0
 74 75  1  0
 75 76  2  0
 22 77  1  0
 77 78  2  0
 78 79  1  0
 79 80  2  0
 80 81  1  0
 81 82  2  0
 12 83  1  0
 83 84  2  0
 84 85  1  0
 85 86  2  0
 86 87  1  0
 87 88  2  0
 52  2  1  0
 70 65  1  0
 76 71  1  0
 82 77  1  0
 88 83  1  0
 41 12  1  0
 64 22  1  0
  3 89  1  0
  3 90  1  0
  4 91  1  0
  5 92  1  0
  5 93  1  0
  6 94  1  0
  6 95  1  0
  7 96  1  0
  8 97  1  0
  8 98  1  0
 11 99  1  0
 11100  1  0
 13101  1  0
 13102  1  0
 14103  1  0
 15104  1  0
 15105  1  0
 16106  1  0
 16107  1  0
 17108  1  0
 18109  1  0
 18110  1  0
 21111  1  0
 21112  1  0
 23113  1  0
 23114  1  0
 24115  1  0
 25116  1  0
 25117  1  0
 26118  1  0
 26119  1  0
 27120  1  0
 28121  1  0
 28122  1  0
 30123  1  0
 30124  1  0
 33125  1  0
 33126  1  0
 34127  1  0
 35128  1  0
 35129  1  0
 36130  1  0
 36131  1  0
 37132  1  0
 38133  1  0
 38134  1  0
 41135  1  0
 41136  1  0
 42137  1  0
 42138  1  0
 45139  1  0
 45140  1  0
 46141  1  0
 47142  1  0
 47143  1  0
 48144  1  0
 48145  1  0
 49146  1  0
 50147  1  0
 50148  1  0
 52149  1  0
 52150  1  0
 53151  1  0
 53152  1  0
 56153  1  0
 56154  1  0
 57155  1  0
 58156  1  0
 58157  1  0
 59158  1  0
 59159  1  0
 60160  1  0
 61161  1  0
 61162  1  0
 64163  1  0
 64164  1  0
 66165  1  0
 67166  1  0
 68167  1  0
 69168  1  0
 70169  1  0
 72170  1  0
 73171  1  0
 74172  1  0
 75173  1  0
 76174  1  0
 78175  1  0
 79176  1  0
 80177  1  0
 81178  1  0
 82179  1  0
 84180  1  0
 85181  1  0
 86182  1  0
 87183  1  0
 88184  1  0
M  END
