
     RDKit          3D

148154  0  0  0  0  0  0  0  0999 V2000
    3.9678   -0.5637   -4.3552 O   0  0  0  0  0  0  0  0  0  0  0  0
    3.0862   -1.4241   -4.0482 C   0  0  0  0  0  0  0  0  0  0  0  0
    4.0099   -2.4239   -3.4211 C   0  0  0  0  0  0  0  0  0  0  0  0
    4.6301   -1.9235   -2.2260 N   0  0  0  0  0  0  0  0  0  0  0  0
    6.0626   -1.8146   -2.3072 C   0  0  0  0  0  0  0  0  0  0  0  0
    6.7626   -2.6210   -1.2219 C   0  0  0  0  0  0  0  0  0  0  0  0
    7.4159   -1.7876   -0.2482 N   0  0  0  0  0  0  0  0  0  0  0  0
    7.2477   -2.2348    1.1076 C   0  0  0  0  0  0  0  0  0  0  0  0
    5.8592   -2.0192    1.6255 C   0  0  0  0  0  0  0  0  0  0  0  0
    5.5111   -3.2463    1.6188 O   0  0  0  0  0  0  0  0  0  0  0  0
    4.4131   -1.7009    1.5459 C   0  0  0  0  0  0  0  0  0  0  0  0
    4.7477   -2.7000    2.4690 C   0  0  0  0  0  0  0  0  0  0  0  0
    3.6116   -3.1569    3.1627 C   0  0  0  0  0  0  0  0  0  0  0  0
    2.5136   -3.4219    2.3271 C   0  0  0  0  0  0  0  0  0  0  0  0
    2.3123   -2.3919    1.4000 C   0  0  0  0  0  0  0  0  0  0  0  0
    1.3340   -3.5007    1.2948 C   0  0  0  0  0  0  0  0  0  0  0  0
    2.3234   -4.2995    1.3920 O   0  0  0  0  0  0  0  0  0  0  0  0
    0.3871   -4.4307    0.6018 C   0  0  0  0  0  0  0  0  0  0  0  0
   -0.8803   -4.3065    1.2708 N   0  0  0  0  0  0  0  0  0  0  0  0
   -1.4784   -5.6052    1.5743 C   0  0  0  0  0  0  0  0  0  0  0  0
   -2.9549   -5.3119    1.8146 C   0  0  0  0  0  0  0  0  0  0  0  0
   -3.7229   -6.5050    2.0489 N   0  0  0  0  0  0  0  0  0  0  0  0
   -4.7173   -6.1925    3.0575 C   0  0  0  0  0  0  0  0  0  0  0  0
   -5.3685   -4.8669    2.8103 C   0  0  0  0  0  0  0  0  0  0  0  0
   -5.6346   -5.0515    1.5771 O   0  0  0  0  0  0  0  0  0  0  0  0
   -5.3245   -3.4173    2.5109 C   0  0  0  0  0  0  0  0  0  0  0  0
   -6.4169   -4.0856    1.9455 C   0  0  0  0  0  0  0  0  0  0  0  0
   -7.2374   -3.2096    1.2147 C   0  0  0  0  0  0  0  0  0  0  0  0
   -6.5209   -2.3339    0.3773 C   0  0  0  0  0  0  0  0  0  0  0  0
   -5.4445   -1.7512    1.0609 C   0  0  0  0  0  0  0  0  0  0  0  0
   -5.6207   -1.2908   -0.3374 C   0  0  0  0  0  0  0  0  0  0  0  0
   -5.7890   -2.5188   -0.6391 O   0  0  0  0  0  0  0  0  0  0  0  0
   -5.1244   -0.8737   -1.6875 C   0  0  0  0  0  0  0  0  0  0  0  0
   -3.9543   -0.0432   -1.6204 N   0  0  0  0  0  0  0  0  0  0  0  0
   -2.7164   -0.7949   -1.7713 C   0  0  0  0  0  0  0  0  0  0  0  0
   -1.7614   -0.1492   -2.7364 C   0  0  0  0  0  0  0  0  0  0  0  0
   -0.4037   -0.1008   -2.2502 N   0  0  0  0  0  0  0  0  0  0  0  0
    0.5647   -0.5234   -3.2457 C   0  0  0  0  0  0  0  0  0  0  0  0
    1.1954    0.6755   -3.8208 C   0  0  0  0  0  0  0  0  0  0  0  0
    2.0746   -0.3425   -4.0956 C   0  0  0  0  0  0  0  0  0  0  0  0
    3.0060   -0.3403   -5.1438 C   0  0  0  0  0  0  0  0  0  0  0  0
    2.8196    0.6886   -6.0777 C   0  0  0  0  0  0  0  0  0  0  0  0
    2.0467    1.8294   -5.8268 C   0  0  0  0  0  0  0  0  0  0  0  0
    1.3688    1.7843   -4.6017 C   0  0  0  0  0  0  0  0  0  0  0  0
    1.1427    3.0081   -5.3902 C   0  0  0  0  0  0  0  0  0  0  0  0
    1.0254    2.2794   -6.4302 O   0  0  0  0  0  0  0  0  0  0  0  0
    0.4324    4.2157   -5.9164 C   0  0  0  0  0  0  0  0  0  0  0  0
    1.3816    5.3190   -5.7980 N   0  0  0  0  0  0  0  0  0  0  0  0
    1.2069    5.8777   -4.4672 C   0  0  0  0  0  0  0  0  0  0  0  0
    2.5091    6.3651   -3.8772 C   0  0  0  0  0  0  0  0  0  0  0  0
    2.5146    6.2504   -2.4212 N   0  0  0  0  0  0  0  0  0  0  0  0
    1.3350    6.9210   -1.9421 C   0  0  0  0  0  0  0  0  0  0  0  0
    1.0074    6.5579   -0.5265 C   0  0  0  0  0  0  0  0  0  0  0  0
   -0.1845    6.1548   -0.7275 O   0  0  0  0  0  0  0  0  0  0  0  0
    0.9620    5.7912    0.7377 C   0  0  0  0  0  0  0  0  0  0  0  0
   -0.1751    6.5680    0.4704 C   0  0  0  0  0  0  0  0  0  0  0  0
   -1.1136    6.4738    1.5157 C   0  0  0  0  0  0  0  0  0  0  0  0
   -1.3097    5.1554    1.9619 C   0  0  0  0  0  0  0  0  0  0  0  0
   -0.0833    4.4948    2.1289 C   0  0  0  0  0  0  0  0  0  0  0  0
   -1.2681    3.6713    2.4537 C   0  0  0  0  0  0  0  0  0  0  0  0
   -1.8002    4.1056    1.3804 O   0  0  0  0  0  0  0  0  0  0  0  0
   -2.0887    2.4270    2.6023 C   0  0  0  0  0  0  0  0  0  0  0  0
   -1.3020    1.2961    3.0156 N   0  0  0  0  0  0  0  0  0  0  0  0
   -1.7751    0.1017    2.3189 C   0  0  0  0  0  0  0  0  0  0  0  0
   -2.7134   -0.6929    3.2181 C   0  0  0  0  0  0  0  0  0  0  0  0
   -3.9836   -0.0143    3.2486 N   0  0  0  0  0  0  0  0  0  0  0  0
   -5.0349   -0.9797    3.5641 C   0  0  0  0  0  0  0  0  0  0  0  0
   -5.2138   -1.9991    2.4429 C   0  0  0  0  0  0  0  0  0  0  0  0
    1.1560    5.1783    2.0058 C   0  0  0  0  0  0  0  0  0  0  0  0
    2.2908    5.3040    3.0186 C   0  0  0  0  0  0  0  0  0  0  0  0
    2.6932    4.0338    3.5574 N   0  0  0  0  0  0  0  0  0  0  0  0
    2.9255    3.0588    2.5308 C   0  0  0  0  0  0  0  0  0  0  0  0
    3.2845    1.7522    3.2288 C   0  0  0  0  0  0  0  0  0  0  0  0
    2.3853    0.6840    2.8647 N   0  0  0  0  0  0  0  0  0  0  0  0
    2.6052    0.2505    1.5107 C   0  0  0  0  0  0  0  0  0  0  0  0
    3.0859   -1.1973    1.4427 C   0  0  0  0  0  0  0  0  0  0  0  0
    3.3609   -3.2848   -3.1401 H   0  0  0  0  0  0  0  0  0  0  0  0
    4.7181   -2.7135   -4.2125 H   0  0  0  0  0  0  0  0  0  0  0  0
    4.1607   -1.1030   -1.8065 H   0  0  0  0  0  0  0  0  0  0  0  0
    6.4267   -2.0818   -3.3217 H   0  0  0  0  0  0  0  0  0  0  0  0
    6.3767   -0.7523   -2.1455 H   0  0  0  0  0  0  0  0  0  0  0  0
    6.0199   -3.3093   -0.7927 H   0  0  0  0  0  0  0  0  0  0  0  0
    7.5265   -3.2672   -1.7241 H   0  0  0  0  0  0  0  0  0  0  0  0
    7.1561   -0.7876   -0.2941 H   0  0  0  0  0  0  0  0  0  0  0  0
    7.4935   -3.3220    1.1604 H   0  0  0  0  0  0  0  0  0  0  0  0
    7.9532   -1.7033    1.7604 H   0  0  0  0  0  0  0  0  0  0  0  0
    5.4640   -2.2509    3.1854 H   0  0  0  0  0  0  0  0  0  0  0  0
    3.7347   -3.6748    4.1095 H   0  0  0  0  0  0  0  0  0  0  0  0
    1.5877   -3.5204    2.9243 H   0  0  0  0  0  0  0  0  0  0  0  0
    0.2407   -4.1856   -0.4578 H   0  0  0  0  0  0  0  0  0  0  0  0
    0.7331   -5.4716    0.6643 H   0  0  0  0  0  0  0  0  0  0  0  0
   -1.5748   -3.7454    0.7140 H   0  0  0  0  0  0  0  0  0  0  0  0
   -0.9847   -6.0204    2.4661 H   0  0  0  0  0  0  0  0  0  0  0  0
   -1.4242   -6.3001    0.7148 H   0  0  0  0  0  0  0  0  0  0  0  0
   -3.2869   -4.7445    0.9108 H   0  0  0  0  0  0  0  0  0  0  0  0
   -2.9788   -4.6799    2.7364 H   0  0  0  0  0  0  0  0  0  0  0  0
   -3.0749   -7.2226    2.4573 H   0  0  0  0  0  0  0  0  0  0  0  0
   -4.2536   -6.1749    4.0535 H   0  0  0  0  0  0  0  0  0  0  0  0
   -5.5316   -6.9294    2.9543 H   0  0  0  0  0  0  0  0  0  0  0  0
   -6.9873   -4.5556    2.7685 H   0  0  0  0  0  0  0  0  0  0  0  0
   -8.2607   -3.4901    0.9664 H   0  0  0  0  0  0  0  0  0  0  0  0
   -7.1832   -1.5061    0.0549 H   0  0  0  0  0  0  0  0  0  0  0  0
   -4.8541   -1.7950   -2.2552 H   0  0  0  0  0  0  0  0  0  0  0  0
   -5.9589   -0.3183   -2.1485 H   0  0  0  0  0  0  0  0  0  0  0  0
   -3.9877    0.7866   -2.2389 H   0  0  0  0  0  0  0  0  0  0  0  0
   -2.2663   -0.8581   -0.7662 H   0  0  0  0  0  0  0  0  0  0  0  0
   -2.9179   -1.8419   -2.1052 H   0  0  0  0  0  0  0  0  0  0  0  0
   -1.8424   -0.6288   -3.7370 H   0  0  0  0  0  0  0  0  0  0  0  0
   -2.0863    0.9120   -2.8764 H   0  0  0  0  0  0  0  0  0  0  0  0
   -0.2687   -0.5533   -1.3283 H   0  0  0  0  0  0  0  0  0  0  0  0
    1.3273   -1.1501   -2.7515 H   0  0  0  0  0  0  0  0  0  0  0  0
    0.0359   -1.1538   -3.9740 H   0  0  0  0  0  0  0  0  0  0  0  0
    2.8767   -1.3159   -5.6549 H   0  0  0  0  0  0  0  0  0  0  0  0
    3.3309    0.6580   -7.0390 H   0  0  0  0  0  0  0  0  0  0  0  0
    2.6941    2.7307   -5.7771 H   0  0  0  0  0  0  0  0  0  0  0  0
   -0.4517    4.4847   -5.3235 H   0  0  0  0  0  0  0  0  0  0  0  0
    0.1495    4.0351   -6.9654 H   0  0  0  0  0  0  0  0  0  0  0  0
    1.1586    6.0094   -6.5516 H   0  0  0  0  0  0  0  0  0  0  0  0
    0.4782    6.7189   -4.5871 H   0  0  0  0  0  0  0  0  0  0  0  0
    0.8137    5.0967   -3.7878 H   0  0  0  0  0  0  0  0  0  0  0  0
    3.3954    5.8992   -4.3321 H   0  0  0  0  0  0  0  0  0  0  0  0
    2.5670    7.4575   -4.1099 H   0  0  0  0  0  0  0  0  0  0  0  0
    2.6015    5.2697   -2.1001 H   0  0  0  0  0  0  0  0  0  0  0  0
    0.4352    6.7422   -2.5480 H   0  0  0  0  0  0  0  0  0  0  0  0
    1.5727    8.0150   -1.9308 H   0  0  0  0  0  0  0  0  0  0  0  0
    0.1537    7.6201    0.3589 H   0  0  0  0  0  0  0  0  0  0  0  0
   -1.9406    7.1783    1.5845 H   0  0  0  0  0  0  0  0  0  0  0  0
   -1.8321    5.1440    2.9365 H   0  0  0  0  0  0  0  0  0  0  0  0
   -2.6062    2.1690    1.6454 H   0  0  0  0  0  0  0  0  0  0  0  0
   -2.8699    2.6907    3.3594 H   0  0  0  0  0  0  0  0  0  0  0  0
   -1.3746    1.1699    4.0593 H   0  0  0  0  0  0  0  0  0  0  0  0
   -0.9236   -0.5189    1.9613 H   0  0  0  0  0  0  0  0  0  0  0  0
   -2.3861    0.4113    1.4395 H   0  0  0  0  0  0  0  0  0  0  0  0
   -2.8414   -1.6929    2.7763 H   0  0  0  0  0  0  0  0  0  0  0  0
   -2.2542   -0.7835    4.2238 H   0  0  0  0  0  0  0  0  0  0  0  0
   -4.0637    0.7121    3.9790 H   0  0  0  0  0  0  0  0  0  0  0  0
   -5.9838   -0.5004    3.8483 H   0  0  0  0  0  0  0  0  0  0  0  0
   -4.6446   -1.4159    4.4885 H   0  0  0  0  0  0  0  0  0  0  0  0
    3.2194    5.6842    2.5809 H   0  0  0  0  0  0  0  0  0  0  0  0
    2.0403    6.0152    3.8270 H   0  0  0  0  0  0  0  0  0  0  0  0
    1.9937    3.6257    4.2275 H   0  0  0  0  0  0  0  0  0  0  0  0
    3.7833    3.3901    1.8926 H   0  0  0  0  0  0  0  0  0  0  0  0
    2.0705    2.9314    1.8324 H   0  0  0  0  0  0  0  0  0  0  0  0
    3.2483    1.8456    4.3322 H   0  0  0  0  0  0  0  0  0  0  0  0
    4.3087    1.4460    2.9387 H   0  0  0  0  0  0  0  0  0  0  0  0
    2.4268   -0.0736    3.5672 H   0  0  0  0  0  0  0  0  0  0  0  0
    1.6762    0.4209    0.9552 H   0  0  0  0  0  0  0  0  0  0  0  0
    3.2975    0.9584    1.0416 H   0  0  0  0  0  0  0  0  0  0  0  0
  1  2  2  0
  2  3  1  0
  3  4  1  0
  4  5  1  0
  5  6  1  0
  6  7  1  0
  7  8  1  0
  8  9  1  0
  9 10  2  0
  9 11  1  0
 11 12  2  0
 12 13  1  0
 13 14  2  0
 14 15  1  0
 15 16  1  0
 16 17  2  0
 16 18  1  0
 18 19  1  0
 19 20  1  0
 20 21  1  0
 21 22  1  0
 22 23  1  0
 23 24  1  0
 24 25  2  0
 24 26  1  0
 26 27  1  0
 27 28  2  0
 28 29  1  0
 29 30  2  0
 30 31  1  0
 31 32  2  0
 31 33  1  0
 33 34  1  0
 34 35  1  0
 35 36  1  0
 36 37  1  0
 37 38  1  0
 38 39  1  0
 39 40  2  0
 40 41  1  0
 41 42  2  0
 42 43  1  0
 43 44  2  0
 44 45  1  0
 45 46  2  0
 45 47  1  0
 47 48  1  0
 48 49  1  0
 49 50  1  0
 50 51  1  0
 51 52  1  0
 52 53  1  0
 53 54  2  0
 53 55  1  0
 55 56  2  0
 56 57  1  0
 57 58  2  0
 58 59  1  0
 59 60  1  0
 60 61  2  0
 60 62  1  0
 62 63  1  0
 63 64  1  0
 64 65  1  0
 65 66  1  0
 66 67  1  0
 67 68  1  0
 59 69  2  0
 69 70  1  0
 70 71  1  0
 71 72  1  0
 72 73  1  0
 73 74  1  0
 74 75  1  0
 75 76  1  0
 40  2  1  0
 69 55  1  0
 76 11  1  0
 76 15  2  0
 68 26  2  0
 68 30  1  0
 44 39  1  0
  3 77  1  0
  3 78  1  0
  4 79  1  0
  5 80  1  0
  5 81  1  0
  6 82  1  0
  6 83  1  0
  7 84  1  0
  8 85  1  0
  8 86  1  0
 12 87  1  0
 13 88  1  0
 14 89  1  0
 18 90  1  0
 18 91  1  0
 19 92  1  0
 20 93  1  0
 20 94  1  0
 21 95  1  0
 21 96  1  0
 22 97  1  0
 23 98  1  0
 23 99  1  0
 27100  1  0
 28101  1  0
 29102  1  0
 33103  1  0
 33104  1  0
 34105  1  0
 35106  1  0
 35107  1  0
 36108  1  0
 36109  1  0
 37110  1  0
 38111  1  0
 38112  1  0
 41113  1  0
 42114  1  0
 43115  1  0
 47116  1  0
 47117  1  0
 48118  1  0
 49119  1  0
 49120  1  0
 50121  1  0
 50122  1  0
 51123  1  0
 52124  1  0
 52125  1  0
 56126  1  0
 57127  1  0
 58128  1  0
 62129  1  0
 62130  1  0
 63131  1  0
 64132  1  0
 64133  1  0
 65134  1  0
 65135  1  0
 66136  1  0
 67137  1  0
 67138  1  0
 70139  1  0
 70140  1  0
 71141  1  0
 72142  1  0
 72143  1  0
 73144  1  0
 73145  1  0
 74146  1  0
 75147  1  0
 75148  1  0
M  END
