
     RDKit          3D

168178  0  0  0  0  0  0  0  0999 V2000
    0.4212   -1.9780   -0.8959 O   0  0  0  0  0  0  0  0  0  0  0  0
    0.5443   -2.2282   -1.8748 C   0  0  0  0  0  0  0  0  0  0  0  0
    1.7853   -1.8702   -2.5744 C   0  0  0  0  0  0  0  0  0  0  0  0
    2.7936   -1.1577   -1.9367 C   0  0  0  0  0  0  0  0  0  0  0  0
    3.9520   -0.7712   -2.5559 C   0  0  0  0  0  0  0  0  0  0  0  0
    4.0554   -0.8840   -3.9183 C   0  0  0  0  0  0  0  0  0  0  0  0
    3.0120   -1.4555   -4.5979 C   0  0  0  0  0  0  0  0  0  0  0  0
    1.8007   -1.6840   -3.9501 C   0  0  0  0  0  0  0  0  0  0  0  0
    0.7644   -2.3538   -4.7346 C   0  0  0  0  0  0  0  0  0  0  0  0
    1.4118   -3.6710   -5.1498 C   0  0  0  0  0  0  0  0  0  0  0  0
    2.5421   -4.0185   -4.3430 N   0  0  0  0  0  0  0  0  0  0  0  0
    2.4404   -5.2336   -3.5987 C   0  0  0  0  0  0  0  0  0  0  0  0
    3.4456   -5.3046   -2.4757 C   0  0  0  0  0  0  0  0  0  0  0  0
    2.8665   -5.1705   -1.1638 N   0  0  0  0  0  0  0  0  0  0  0  0
    3.7778   -4.6554   -0.1738 C   0  0  0  0  0  0  0  0  0  0  0  0
    3.1006   -3.8958    0.9408 C   0  0  0  0  0  0  0  0  0  0  0  0
    3.9778   -2.7519    1.3706 C   0  0  0  0  0  0  0  0  0  0  0  0
    3.3958   -1.9009    2.4564 C   0  0  0  0  0  0  0  0  0  0  0  0
    1.9310   -1.5610    2.2728 C   0  0  0  0  0  0  0  0  0  0  0  0
    1.4540   -1.0111    3.4811 N   0  0  0  0  0  0  0  0  0  0  0  0
    0.4044   -0.0941    3.4999 C   0  0  0  0  0  0  0  0  0  0  0  0
   -0.1491    0.4312    2.2292 C   0  0  0  0  0  0  0  0  0  0  0  0
   -1.2263   -0.3759    1.6734 N   0  0  0  0  0  0  0  0  0  0  0  0
   -2.0067    0.5217    0.8216 C   0  0  0  0  0  0  0  0  0  0  0  0
   -3.4453    0.0195    0.9468 C   0  0  0  0  0  0  0  0  0  0  0  0
   -3.3255   -1.4720    0.6455 C   0  0  0  0  0  0  0  0  0  0  0  0
   -4.5116   -2.0113    0.0359 N   0  0  0  0  0  0  0  0  0  0  0  0
   -4.2192   -3.4180   -0.2332 C   0  0  0  0  0  0  0  0  0  0  0  0
   -3.3640   -3.6018   -1.4559 C   0  0  0  0  0  0  0  0  0  0  0  0
   -2.0310   -3.9696   -1.0608 N   0  0  0  0  0  0  0  0  0  0  0  0
   -1.0929   -4.0433   -2.1387 C   0  0  0  0  0  0  0  0  0  0  0  0
   -0.6525   -2.6696   -2.6390 C   0  0  0  0  0  0  0  0  0  0  0  0
   -0.5322   -2.6211   -4.1079 C   0  0  0  0  0  0  0  0  0  0  0  0
   -3.9289    0.2670    2.3171 C   0  0  0  0  0  0  0  0  0  0  0  0
   -5.1814    1.0181    2.5186 C   0  0  0  0  0  0  0  0  0  0  0  0
   -4.9795    2.2541    3.3939 C   0  0  0  0  0  0  0  0  0  0  0  0
   -3.6883    2.8565    3.1995 N   0  0  0  0  0  0  0  0  0  0  0  0
   -3.7405    4.2842    2.9956 C   0  0  0  0  0  0  0  0  0  0  0  0
   -3.1401    4.7135    1.6782 C   0  0  0  0  0  0  0  0  0  0  0  0
   -2.0376    5.6276    1.8285 N   0  0  0  0  0  0  0  0  0  0  0  0
   -0.7546    5.0404    1.5582 C   0  0  0  0  0  0  0  0  0  0  0  0
   -0.5370    4.7614    0.0745 C   0  0  0  0  0  0  0  0  0  0  0  0
    0.6877    3.9106   -0.0030 C   0  0  0  0  0  0  0  0  0  0  0  0
    1.1908    3.6935   -1.4271 C   0  0  0  0  0  0  0  0  0  0  0  0
    0.0476    3.1105   -2.2015 C   0  0  0  0  0  0  0  0  0  0  0  0
    0.3149    2.8751   -3.5965 N   0  0  0  0  0  0  0  0  0  0  0  0
    0.7251    1.5365   -3.8296 C   0  0  0  0  0  0  0  0  0  0  0  0
    0.1412    0.8350   -5.0157 C   0  0  0  0  0  0  0  0  0  0  0  0
    1.0298   -0.0795   -5.6659 N   0  0  0  0  0  0  0  0  0  0  0  0
    0.5411   -1.4029   -5.9054 C   0  0  0  0  0  0  0  0  0  0  0  0
    2.3362    2.7212   -1.2282 C   0  0  0  0  0  0  0  0  0  0  0  0
    3.0464    2.9640    0.0281 N   0  0  0  0  0  0  0  0  0  0  0  0
    3.5553    1.6996    0.4701 C   0  0  0  0  0  0  0  0  0  0  0  0
    4.0733    1.6333    1.8592 C   0  0  0  0  0  0  0  0  0  0  0  0
    3.5504    0.5568    2.6554 N   0  0  0  0  0  0  0  0  0  0  0  0
    4.2670   -0.6770    2.5709 C   0  0  0  0  0  0  0  0  0  0  0  0
    1.6231    5.0125   -1.9176 C   0  0  0  0  0  0  0  0  0  0  0  0
    2.8928    5.3323   -2.3157 C   0  0  0  0  0  0  0  0  0  0  0  0
    3.3190    6.6161   -2.5898 C   0  0  0  0  0  0  0  0  0  0  0  0
    2.3736    7.6331   -2.6131 C   0  0  0  0  0  0  0  0  0  0  0  0
    1.1298    7.3607   -2.0787 C   0  0  0  0  0  0  0  0  0  0  0  0
    0.7697    6.0820   -1.6721 C   0  0  0  0  0  0  0  0  0  0  0  0
   -0.2944    6.0141   -0.6663 C   0  0  0  0  0  0  0  0  0  0  0  0
   -1.0944    6.9706   -0.4783 O   0  0  0  0  0  0  0  0  0  0  0  0
   -5.8758    1.4883    1.3147 C   0  0  0  0  0  0  0  0  0  0  0  0
   -7.0421    1.9566    1.4774 O   0  0  0  0  0  0  0  0  0  0  0  0
   -5.2038    1.5688    0.0163 C   0  0  0  0  0  0  0  0  0  0  0  0
   -5.9996    1.9412   -1.0582 C   0  0  0  0  0  0  0  0  0  0  0  0
   -5.6467    1.5812   -2.3519 C   0  0  0  0  0  0  0  0  0  0  0  0
   -4.5729    0.7182   -2.5286 C   0  0  0  0  0  0  0  0  0  0  0  0
   -3.7662    0.4153   -1.4385 C   0  0  0  0  0  0  0  0  0  0  0  0
   -4.2025    0.6223   -0.1476 C   0  0  0  0  0  0  0  0  0  0  0  0
    3.4495   -2.7690    3.6751 C   0  0  0  0  0  0  0  0  0  0  0  0
    3.7476   -2.2912    4.9289 C   0  0  0  0  0  0  0  0  0  0  0  0
    3.4081   -3.0983    6.0096 C   0  0  0  0  0  0  0  0  0  0  0  0
    2.5671   -4.1904    5.8309 C   0  0  0  0  0  0  0  0  0  0  0  0
    2.6411   -4.8135    4.5945 C   0  0  0  0  0  0  0  0  0  0  0  0
    2.9661   -4.0597    3.4932 C   0  0  0  0  0  0  0  0  0  0  0  0
    2.9535   -4.7215    2.1822 C   0  0  0  0  0  0  0  0  0  0  0  0
    2.5520   -5.9074    2.0610 O   0  0  0  0  0  0  0  0  0  0  0  0
    2.6520   -1.0310   -0.8624 H   0  0  0  0  0  0  0  0  0  0  0  0
    4.6489   -0.1271   -2.0567 H   0  0  0  0  0  0  0  0  0  0  0  0
    5.0031   -0.7657   -4.4466 H   0  0  0  0  0  0  0  0  0  0  0  0
    3.1127   -1.6287   -5.6665 H   0  0  0  0  0  0  0  0  0  0  0  0
    0.6948   -4.5108   -5.1250 H   0  0  0  0  0  0  0  0  0  0  0  0
    1.7013   -3.5428   -6.2216 H   0  0  0  0  0  0  0  0  0  0  0  0
    3.3877   -4.0891   -4.9684 H   0  0  0  0  0  0  0  0  0  0  0  0
    1.4324   -5.4896   -3.2491 H   0  0  0  0  0  0  0  0  0  0  0  0
    2.7250   -6.0581   -4.3036 H   0  0  0  0  0  0  0  0  0  0  0  0
    4.1894   -4.4902   -2.6597 H   0  0  0  0  0  0  0  0  0  0  0  0
    4.0278   -6.2530   -2.4756 H   0  0  0  0  0  0  0  0  0  0  0  0
    2.5065   -6.0817   -0.8155 H   0  0  0  0  0  0  0  0  0  0  0  0
    4.4985   -3.9952   -0.7196 H   0  0  0  0  0  0  0  0  0  0  0  0
    4.3992   -5.4478    0.3018 H   0  0  0  0  0  0  0  0  0  0  0  0
    2.1210   -3.5951    0.5508 H   0  0  0  0  0  0  0  0  0  0  0  0
    4.3609   -2.1387    0.5455 H   0  0  0  0  0  0  0  0  0  0  0  0
    4.8903   -3.2334    1.8120 H   0  0  0  0  0  0  0  0  0  0  0  0
    1.4081   -2.5406    2.1251 H   0  0  0  0  0  0  0  0  0  0  0  0
    1.7593   -0.9885    1.3578 H   0  0  0  0  0  0  0  0  0  0  0  0
    1.2464   -1.7998    4.1499 H   0  0  0  0  0  0  0  0  0  0  0  0
    0.7372    0.7852    4.1129 H   0  0  0  0  0  0  0  0  0  0  0  0
   -0.4685   -0.4967    4.0783 H   0  0  0  0  0  0  0  0  0  0  0  0
    0.5783    0.6528    1.4387 H   0  0  0  0  0  0  0  0  0  0  0  0
   -0.6318    1.4178    2.4592 H   0  0  0  0  0  0  0  0  0  0  0  0
   -1.8069   -0.7183    2.4843 H   0  0  0  0  0  0  0  0  0  0  0  0
   -1.9011    1.5753    1.1045 H   0  0  0  0  0  0  0  0  0  0  0  0
   -1.6085    0.3876   -0.1979 H   0  0  0  0  0  0  0  0  0  0  0  0
   -3.1361   -2.0318    1.5838 H   0  0  0  0  0  0  0  0  0  0  0  0
   -2.4982   -1.6374   -0.0907 H   0  0  0  0  0  0  0  0  0  0  0  0
   -5.2930   -2.0200    0.7400 H   0  0  0  0  0  0  0  0  0  0  0  0
   -3.7166   -3.8576    0.6651 H   0  0  0  0  0  0  0  0  0  0  0  0
   -5.1458   -4.0101   -0.3921 H   0  0  0  0  0  0  0  0  0  0  0  0
   -3.3721   -2.6559   -2.0132 H   0  0  0  0  0  0  0  0  0  0  0  0
   -3.7688   -4.3909   -2.1389 H   0  0  0  0  0  0  0  0  0  0  0  0
   -2.0280   -4.8456   -0.5151 H   0  0  0  0  0  0  0  0  0  0  0  0
   -1.4679   -4.6363   -2.9849 H   0  0  0  0  0  0  0  0  0  0  0  0
   -0.1742   -4.5375   -1.7458 H   0  0  0  0  0  0  0  0  0  0  0  0
   -1.4695   -1.9904   -2.2789 H   0  0  0  0  0  0  0  0  0  0  0  0
   -0.8966   -3.6108   -4.4963 H   0  0  0  0  0  0  0  0  0  0  0  0
   -1.3176   -1.9194   -4.4960 H   0  0  0  0  0  0  0  0  0  0  0  0
   -4.0323   -0.7284    2.8240 H   0  0  0  0  0  0  0  0  0  0  0  0
   -3.1340    0.7774    2.9220 H   0  0  0  0  0  0  0  0  0  0  0  0
   -5.9384    0.4137    3.0843 H   0  0  0  0  0  0  0  0  0  0  0  0
   -5.0536    1.9807    4.4739 H   0  0  0  0  0  0  0  0  0  0  0  0
   -5.7484    3.0185    3.2121 H   0  0  0  0  0  0  0  0  0  0  0  0
   -3.0057    2.6604    3.9533 H   0  0  0  0  0  0  0  0  0  0  0  0
   -4.8235    4.5656    3.0262 H   0  0  0  0  0  0  0  0  0  0  0  0
   -3.2831    4.8281    3.8605 H   0  0  0  0  0  0  0  0  0  0  0  0
   -3.9146    5.2511    1.0745 H   0  0  0  0  0  0  0  0  0  0  0  0
   -2.8833    3.8009    1.1209 H   0  0  0  0  0  0  0  0  0  0  0  0
   -1.9856    6.0192    2.8061 H   0  0  0  0  0  0  0  0  0  0  0  0
   -0.5985    4.0717    2.0971 H   0  0  0  0  0  0  0  0  0  0  0  0
    0.0343    5.7227    1.9057 H   0  0  0  0  0  0  0  0  0  0  0  0
   -1.4590    4.2508   -0.2718 H   0  0  0  0  0  0  0  0  0  0  0  0
    0.5876    2.9120    0.4435 H   0  0  0  0  0  0  0  0  0  0  0  0
    1.5052    4.4361    0.5282 H   0  0  0  0  0  0  0  0  0  0  0  0
   -0.3100    2.2103   -1.6620 H   0  0  0  0  0  0  0  0  0  0  0  0
   -0.7852    3.8445   -2.1526 H   0  0  0  0  0  0  0  0  0  0  0  0
    1.0436    3.5495   -3.9154 H   0  0  0  0  0  0  0  0  0  0  0  0
    0.4345    0.9416   -2.9262 H   0  0  0  0  0  0  0  0  0  0  0  0
    1.8287    1.5085   -3.9300 H   0  0  0  0  0  0  0  0  0  0  0  0
   -0.8258    0.4076   -4.7151 H   0  0  0  0  0  0  0  0  0  0  0  0
   -0.1039    1.6297   -5.7665 H   0  0  0  0  0  0  0  0  0  0  0  0
    1.4519    0.2745   -6.5422 H   0  0  0  0  0  0  0  0  0  0  0  0
   -0.5436   -1.3353   -6.1667 H   0  0  0  0  0  0  0  0  0  0  0  0
    1.0352   -1.8444   -6.7902 H   0  0  0  0  0  0  0  0  0  0  0  0
    3.0025    2.6368   -2.0904 H   0  0  0  0  0  0  0  0  0  0  0  0
    1.8496    1.7199   -1.1072 H   0  0  0  0  0  0  0  0  0  0  0  0
    3.7848    3.6944   -0.0781 H   0  0  0  0  0  0  0  0  0  0  0  0
    2.7033    0.9859    0.3965 H   0  0  0  0  0  0  0  0  0  0  0  0
    4.3478    1.3932   -0.2311 H   0  0  0  0  0  0  0  0  0  0  0  0
    5.1868    1.5174    1.8549 H   0  0  0  0  0  0  0  0  0  0  0  0
    3.8899    2.6087    2.3694 H   0  0  0  0  0  0  0  0  0  0  0  0
    3.5108    0.8673    3.6483 H   0  0  0  0  0  0  0  0  0  0  0  0
    4.9695   -0.5789    1.7036 H   0  0  0  0  0  0  0  0  0  0  0  0
    4.9423   -0.7903    3.4569 H   0  0  0  0  0  0  0  0  0  0  0  0
    3.6117    4.5468   -2.4137 H   0  0  0  0  0  0  0  0  0  0  0  0
    4.3779    6.8313   -2.4415 H   0  0  0  0  0  0  0  0  0  0  0  0
    2.6832    8.6617   -2.7855 H   0  0  0  0  0  0  0  0  0  0  0  0
    0.3326    8.1002   -2.1481 H   0  0  0  0  0  0  0  0  0  0  0  0
   -6.8148    2.6357   -0.9138 H   0  0  0  0  0  0  0  0  0  0  0  0
   -6.1544    2.0528   -3.1946 H   0  0  0  0  0  0  0  0  0  0  0  0
   -4.5864    0.1233   -3.4336 H   0  0  0  0  0  0  0  0  0  0  0  0
   -2.9221   -0.2104   -1.6359 H   0  0  0  0  0  0  0  0  0  0  0  0
    3.7463   -1.2059    5.0496 H   0  0  0  0  0  0  0  0  0  0  0  0
    3.2843   -2.5832    6.9644 H   0  0  0  0  0  0  0  0  0  0  0  0
    1.9668   -4.6085    6.6311 H   0  0  0  0  0  0  0  0  0  0  0  0
    2.2957   -5.8415    4.5001 H   0  0  0  0  0  0  0  0  0  0  0  0
  1  2  2  0
  2  3  1  0
  3  4  2  0
  4  5  1  0
  5  6  2  0
  6  7  1  0
  7  8  2  0
  8  9  1  0
  9 10  1  0
 10 11  1  0
 11 12  1  0
 12 13  1  0
 13 14  1  0
 14 15  1  0
 15 16  1  0
 16 17  1  0
 17 18  1  0
 18 19  1  0
 19 20  1  0
 20 21  1  0
 21 22  1  0
 22 23  1  0
 23 24  1  0
 24 25  1  0
 25 26  1  0
 26 27  1  0
 27 28  1  0
 28 29  1  0
 29 30  1  0
 30 31  1  0
 31 32  1  0
 32 33  1  0
 25 34  1  0
 34 35  1  0
 35 36  1  0
 36 37  1  0
 37 38  1  0
 38 39  1  0
 39 40  1  0
 40 41  1  0
 41 42  1  0
 42 43  1  0
 43 44  1  0
 44 45  1  0
 45 46  1  0
 46 47  1  0
 47 48  1  0
 48 49  1  0
 49 50  1  0
 44 51  1  0
 51 52  1  0
 52 53  1  0
 53 54  1  0
 54 55  1  0
 55 56  1  0
 44 57  1  0
 57 58  2  0
 58 59  1  0
 59 60  2  0
 60 61  1  0
 61 62  2  0
 62 63  1  0
 63 64  2  0
 35 65  1  0
 65 66  2  0
 65 67  1  0
 67 68  2  0
 68 69  1  0
 69 70  2  0
 70 71  1  0
 71 72  2  0
 18 73  1  0
 73 74  2  0
 74 75  1  0
 75 76  2  0
 76 77  1  0
 77 78  2  0
 78 79  1  0
 79 80  2  0
 32  2  1  0
 63 42  1  0
 72 67  1  0
 78 73  1  0
  8  3  1  0
 33  9  1  0
 62 57  1  0
 50  9  1  0
 79 16  1  0
 56 18  1  0
 72 25  1  0
  4 81  1  0
  5 82  1  0
  6 83  1  0
  7 84  1  0
 10 85  1  0
 10 86  1  0
 11 87  1  0
 12 88  1  0
 12 89  1  0
 13 90  1  0
 13 91  1  0
 14 92  1  0
 15 93  1  0
 15 94  1  0
 16 95  1  0
 17 96  1  0
 17 97  1  0
 19 98  1  0
 19 99  1  0
 20100  1  0
 21101  1  0
 21102  1  0
 22103  1  0
 22104  1  0
 23105  1  0
 24106  1  0
 24107  1  0
 26108  1  0
 26109  1  0
 27110  1  0
 28111  1  0
 28112  1  0
 29113  1  0
 29114  1  0
 30115  1  0
 31116  1  0
 31117  1  0
 32118  1  0
 33119  1  0
 33120  1  0
 34121  1  0
 34122  1  0
 35123  1  0
 36124  1  0
 36125  1  0
 37126  1  0
 38127  1  0
 38128  1  0
 39129  1  0
 39130  1  0
 40131  1  0
 41132  1  0
 41133  1  0
 42134  1  0
 43135  1  0
 43136  1  0
 45137  1  0
 45138  1  0
 46139  1  0
 47140  1  0
 47141  1  0
 48142  1  0
 48143  1  0
 49144  1  0
 50145  1  0
 50146  1  0
 51147  1  0
 51148  1  0
 52149  1  0
 53150  1  0
 53151  1  0
 54152  1  0
 54153  1  0
 55154  1  0
 56155  1  0
 56156  1  0
 58157  1  0
 59158  1  0
 60159  1  0
 61160  1  0
 68161  1  0
 69162  1  0
 70163  1  0
 71164  1  0
 74165  1  0
 75166  1  0
 76167  1  0
 77168  1  0
M  END
