
     RDKit          3D

132138  0  0  0  0  0  0  0  0999 V2000
    0.2352    0.1937    6.8471 O   0  0  0  0  0  0  0  0  0  0  0  0
    0.6599    0.0914    5.8757 C   0  0  0  0  0  0  0  0  0  0  0  0
   -0.6174   -0.1565    5.3338 O   0  0  0  0  0  0  0  0  0  0  0  0
   -1.8786   -0.2599    4.6726 C   0  0  0  0  0  0  0  0  0  0  0  0
   -1.8794    0.3592    3.3747 N   0  0  0  0  0  0  0  0  0  0  0  0
   -2.8701    1.4293    3.2638 C   0  0  0  0  0  0  0  0  0  0  0  0
   -2.9346    1.9016    1.8387 C   0  0  0  0  0  0  0  0  0  0  0  0
   -3.6995    1.0412    0.9755 N   0  0  0  0  0  0  0  0  0  0  0  0
   -4.3832    1.7548   -0.0826 C   0  0  0  0  0  0  0  0  0  0  0  0
   -4.1774    1.1452   -1.3598 O   0  0  0  0  0  0  0  0  0  0  0  0
   -3.6330    0.6197   -2.5215 C   0  0  0  0  0  0  0  0  0  0  0  0
   -3.9773   -0.5562   -2.1850 O   0  0  0  0  0  0  0  0  0  0  0  0
   -2.7422    0.3377   -3.6311 C   0  0  0  0  0  0  0  0  0  0  0  0
   -1.4580   -0.1215   -3.9776 C   0  0  0  0  0  0  0  0  0  0  0  0
   -1.9130   -0.6776   -5.1930 C   0  0  0  0  0  0  0  0  0  0  0  0
   -1.9795   -2.1547   -5.5828 C   0  0  0  0  0  0  0  0  0  0  0  0
   -0.6963   -2.6692   -6.0688 N   0  0  0  0  0  0  0  0  0  0  0  0
    0.0997   -2.9110   -4.8671 C   0  0  0  0  0  0  0  0  0  0  0  0
    1.2695   -3.8235   -5.1338 C   0  0  0  0  0  0  0  0  0  0  0  0
    2.3037   -3.6665   -4.1469 N   0  0  0  0  0  0  0  0  0  0  0  0
    2.6522   -4.8868   -3.4655 C   0  0  0  0  0  0  0  0  0  0  0  0
    1.5170   -5.3781   -2.7478 O   0  0  0  0  0  0  0  0  0  0  0  0
    0.3168   -5.4451   -2.0165 C   0  0  0  0  0  0  0  0  0  0  0  0
   -0.2719   -6.0598   -2.9582 O   0  0  0  0  0  0  0  0  0  0  0  0
   -0.8021   -5.4318   -1.0279 C   0  0  0  0  0  0  0  0  0  0  0  0
   -1.2065   -6.0041    0.1993 C   0  0  0  0  0  0  0  0  0  0  0  0
   -0.6109   -5.0227    1.0481 C   0  0  0  0  0  0  0  0  0  0  0  0
    0.4785   -5.2251    2.1224 C   0  0  0  0  0  0  0  0  0  0  0  0
    1.7525   -4.6871    1.7836 N   0  0  0  0  0  0  0  0  0  0  0  0
    2.0494   -3.3778    2.2482 C   0  0  0  0  0  0  0  0  0  0  0  0
    1.9323   -3.1512    3.7185 C   0  0  0  0  0  0  0  0  0  0  0  0
    3.1582   -2.8935    4.3953 N   0  0  0  0  0  0  0  0  0  0  0  0
    3.8623   -1.7357    4.1408 C   0  0  0  0  0  0  0  0  0  0  0  0
    3.7333   -0.5653    5.1291 C   0  0  0  0  0  0  0  0  0  0  0  0
    3.2778   -0.6044    6.4778 C   0  0  0  0  0  0  0  0  0  0  0  0
    2.1039    0.1473    6.2491 C   0  0  0  0  0  0  0  0  0  0  0  0
    2.8435    1.2296    6.0275 O   0  0  0  0  0  0  0  0  0  0  0  0
    3.6735    0.8831    5.0101 C   0  0  0  0  0  0  0  0  0  0  0  0
    4.2245    2.1359    4.3355 C   0  0  0  0  0  0  0  0  0  0  0  0
    3.4676    2.7051    3.3172 N   0  0  0  0  0  0  0  0  0  0  0  0
    2.0675    2.7741    3.3770 C   0  0  0  0  0  0  0  0  0  0  0  0
    1.4876    3.8141    4.2886 C   0  0  0  0  0  0  0  0  0  0  0  0
    1.6785    5.1422    3.7499 N   0  0  0  0  0  0  0  0  0  0  0  0
    0.6885    5.5151    2.7740 C   0  0  0  0  0  0  0  0  0  0  0  0
    1.3695    5.6267    1.5239 O   0  0  0  0  0  0  0  0  0  0  0  0
    1.9357    5.3789    0.2588 C   0  0  0  0  0  0  0  0  0  0  0  0
    2.9042    6.1596    0.5059 O   0  0  0  0  0  0  0  0  0  0  0  0
    2.2293    5.0995   -1.1794 C   0  0  0  0  0  0  0  0  0  0  0  0
    1.7724    5.3444   -2.4961 C   0  0  0  0  0  0  0  0  0  0  0  0
    0.8592    4.2507   -2.5462 C   0  0  0  0  0  0  0  0  0  0  0  0
   -0.6634    4.3771   -2.7185 C   0  0  0  0  0  0  0  0  0  0  0  0
   -1.0613    4.1599   -4.0841 N   0  0  0  0  0  0  0  0  0  0  0  0
   -2.4091    4.5907   -4.2702 C   0  0  0  0  0  0  0  0  0  0  0  0
   -3.0189    3.7096   -5.3568 C   0  0  0  0  0  0  0  0  0  0  0  0
   -1.9888    3.0036   -6.0466 N   0  0  0  0  0  0  0  0  0  0  0  0
   -2.3337    1.7730   -6.6423 C   0  0  0  0  0  0  0  0  0  0  0  0
   -2.4346    0.5945   -5.6736 C   0  0  0  0  0  0  0  0  0  0  0  0
   -3.4149    0.5999   -4.7729 O   0  0  0  0  0  0  0  0  0  0  0  0
    1.7984    3.2368   -2.0753 C   0  0  0  0  0  0  0  0  0  0  0  0
    2.1051    1.7519   -1.8937 C   0  0  0  0  0  0  0  0  0  0  0  0
    1.8772    1.2655   -0.5659 N   0  0  0  0  0  0  0  0  0  0  0  0
    1.5071   -0.1185   -0.5332 C   0  0  0  0  0  0  0  0  0  0  0  0
    0.0689   -0.3626   -0.1667 C   0  0  0  0  0  0  0  0  0  0  0  0
   -0.3383   -1.6642   -0.5693 N   0  0  0  0  0  0  0  0  0  0  0  0
   -1.2730   -2.3179    0.2813 C   0  0  0  0  0  0  0  0  0  0  0  0
   -1.0934   -3.8418    0.3477 C   0  0  0  0  0  0  0  0  0  0  0  0
   -1.6320   -4.4176   -0.7627 O   0  0  0  0  0  0  0  0  0  0  0  0
    2.8338    4.0013   -1.6383 O   0  0  0  0  0  0  0  0  0  0  0  0
   -2.6867    0.2154    5.2616 H   0  0  0  0  0  0  0  0  0  0  0  0
   -2.1016   -1.3542    4.6388 H   0  0  0  0  0  0  0  0  0  0  0  0
   -2.2306   -0.3758    2.7042 H   0  0  0  0  0  0  0  0  0  0  0  0
   -2.6027    2.2976    3.8967 H   0  0  0  0  0  0  0  0  0  0  0  0
   -3.8842    1.0423    3.5230 H   0  0  0  0  0  0  0  0  0  0  0  0
   -3.4130    2.9123    1.7823 H   0  0  0  0  0  0  0  0  0  0  0  0
   -1.9276    2.0126    1.3768 H   0  0  0  0  0  0  0  0  0  0  0  0
   -3.1444    0.2510    0.5916 H   0  0  0  0  0  0  0  0  0  0  0  0
   -5.4956    1.7271    0.0433 H   0  0  0  0  0  0  0  0  0  0  0  0
   -4.0393    2.7972   -0.1482 H   0  0  0  0  0  0  0  0  0  0  0  0
   -0.4764    0.0334   -3.5148 H   0  0  0  0  0  0  0  0  0  0  0  0
   -2.5832   -2.3412   -6.5011 H   0  0  0  0  0  0  0  0  0  0  0  0
   -2.4662   -2.8167   -4.8696 H   0  0  0  0  0  0  0  0  0  0  0  0
   -0.2381   -1.8492   -6.5416 H   0  0  0  0  0  0  0  0  0  0  0  0
   -0.5963   -3.2943   -4.1088 H   0  0  0  0  0  0  0  0  0  0  0  0
    0.5109   -1.9559   -4.4537 H   0  0  0  0  0  0  0  0  0  0  0  0
    1.7070   -3.4886   -6.1086 H   0  0  0  0  0  0  0  0  0  0  0  0
    0.9875   -4.8760   -5.2797 H   0  0  0  0  0  0  0  0  0  0  0  0
    3.2003   -3.2837   -4.5469 H   0  0  0  0  0  0  0  0  0  0  0  0
    3.4127   -4.6339   -2.7055 H   0  0  0  0  0  0  0  0  0  0  0  0
    2.9817   -5.6970   -4.1294 H   0  0  0  0  0  0  0  0  0  0  0  0
   -1.9192   -6.8216    0.3792 H   0  0  0  0  0  0  0  0  0  0  0  0
    0.0849   -4.8891    3.1208 H   0  0  0  0  0  0  0  0  0  0  0  0
    0.7280   -6.2456    2.3541 H   0  0  0  0  0  0  0  0  0  0  0  0
    2.5743   -5.2887    1.9073 H   0  0  0  0  0  0  0  0  0  0  0  0
    1.4987   -2.5707    1.7011 H   0  0  0  0  0  0  0  0  0  0  0  0
    3.1240   -3.1868    1.9907 H   0  0  0  0  0  0  0  0  0  0  0  0
    1.4732   -4.0083    4.2743 H   0  0  0  0  0  0  0  0  0  0  0  0
    1.2482   -2.2889    3.9188 H   0  0  0  0  0  0  0  0  0  0  0  0
    3.7471   -3.7669    4.3760 H   0  0  0  0  0  0  0  0  0  0  0  0
    3.4950   -1.4963    3.1183 H   0  0  0  0  0  0  0  0  0  0  0  0
    4.9404   -1.9975    3.9845 H   0  0  0  0  0  0  0  0  0  0  0  0
    3.7016   -0.9812    7.4175 H   0  0  0  0  0  0  0  0  0  0  0  0
    5.1858    1.8897    3.7864 H   0  0  0  0  0  0  0  0  0  0  0  0
    4.7405    2.8279    5.0496 H   0  0  0  0  0  0  0  0  0  0  0  0
    3.9136    2.9444    2.4222 H   0  0  0  0  0  0  0  0  0  0  0  0
    1.6555    1.7651    3.5096 H   0  0  0  0  0  0  0  0  0  0  0  0
    1.7150    3.0711    2.3521 H   0  0  0  0  0  0  0  0  0  0  0  0
    0.3947    3.5882    4.3780 H   0  0  0  0  0  0  0  0  0  0  0  0
    1.9046    3.8287    5.3017 H   0  0  0  0  0  0  0  0  0  0  0  0
    1.8183    5.8470    4.5022 H   0  0  0  0  0  0  0  0  0  0  0  0
   -0.1346    4.7616    2.6894 H   0  0  0  0  0  0  0  0  0  0  0  0
    0.3023    6.5151    3.0361 H   0  0  0  0  0  0  0  0  0  0  0  0
    2.1394    6.0748   -3.2298 H   0  0  0  0  0  0  0  0  0  0  0  0
   -1.1357    5.2103   -2.2070 H   0  0  0  0  0  0  0  0  0  0  0  0
   -1.2307    3.5657   -2.1910 H   0  0  0  0  0  0  0  0  0  0  0  0
   -0.3803    4.5912   -4.7301 H   0  0  0  0  0  0  0  0  0  0  0  0
   -3.0135    4.6019   -3.3512 H   0  0  0  0  0  0  0  0  0  0  0  0
   -2.3747    5.6477   -4.6376 H   0  0  0  0  0  0  0  0  0  0  0  0
   -3.7809    3.0249   -4.9662 H   0  0  0  0  0  0  0  0  0  0  0  0
   -3.5340    4.3723   -6.0885 H   0  0  0  0  0  0  0  0  0  0  0  0
   -1.3241    3.6071   -6.5425 H   0  0  0  0  0  0  0  0  0  0  0  0
   -1.4535    1.6128   -7.3333 H   0  0  0  0  0  0  0  0  0  0  0  0
   -3.1451    1.7801   -7.3883 H   0  0  0  0  0  0  0  0  0  0  0  0
    1.3915    1.1099   -2.4848 H   0  0  0  0  0  0  0  0  0  0  0  0
    3.0189    1.4170   -2.3912 H   0  0  0  0  0  0  0  0  0  0  0  0
    2.6146    1.5150    0.1186 H   0  0  0  0  0  0  0  0  0  0  0  0
    2.1294   -0.7400    0.1272 H   0  0  0  0  0  0  0  0  0  0  0  0
    1.6428   -0.5174   -1.5704 H   0  0  0  0  0  0  0  0  0  0  0  0
   -0.0441   -0.3032    0.9441 H   0  0  0  0  0  0  0  0  0  0  0  0
   -0.6121    0.4207   -0.5710 H   0  0  0  0  0  0  0  0  0  0  0  0
   -0.4362   -1.8315   -1.5757 H   0  0  0  0  0  0  0  0  0  0  0  0
   -1.0164   -1.8367    1.2678 H   0  0  0  0  0  0  0  0  0  0  0  0
   -2.3142   -1.9979    0.2436 H   0  0  0  0  0  0  0  0  0  0  0  0
  1  2  2  0
  2  3  1  0
  3  4  1  0
  4  5  1  0
  5  6  1  0
  6  7  1  0
  7  8  1  0
  8  9  1  0
  9 10  1  0
 10 11  1  0
 11 12  2  0
 11 13  1  0
 13 14  2  0
 14 15  1  0
 15 16  1  0
 16 17  1  0
 17 18  1  0
 18 19  1  0
 19 20  1  0
 20 21  1  0
 21 22  1  0
 22 23  1  0
 23 24  2  0
 23 25  1  0
 25 26  2  0
 26 27  1  0
 27 28  1  0
 28 29  1  0
 29 30  1  0
 30 31  1  0
 31 32  1  0
 32 33  1  0
 33 34  1  0
 34 35  1  0
 35 36  2  0
 36 37  1  0
 37 38  1  0
 38 39  1  0
 39 40  1  0
 40 41  1  0
 41 42  1  0
 42 43  1  0
 43 44  1  0
 44 45  1  0
 45 46  1  0
 46 47  2  0
 46 48  1  0
 48 49  2  0
 49 50  1  0
 50 51  1  0
 51 52  1  0
 52 53  1  0
 53 54  1  0
 54 55  1  0
 55 56  1  0
 56 57  1  0
 57 58  1  0
 50 59  2  0
 59 60  1  0
 60 61  1  0
 61 62  1  0
 62 63  1  0
 63 64  1  0
 64 65  1  0
 65 66  1  0
 66 67  1  0
 59 68  1  0
 36  2  1  0
 68 48  1  0
 58 13  1  0
 57 15  2  0
 67 25  1  0
 66 27  2  0
 38 34  2  0
  4 69  1  0
  4 70  1  0
  5 71  1  0
  6 72  1  0
  6 73  1  0
  7 74  1  0
  7 75  1  0
  8 76  1  0
  9 77  1  0
  9 78  1  0
 14 79  1  0
 16 80  1  0
 16 81  1  0
 17 82  1  0
 18 83  1  0
 18 84  1  0
 19 85  1  0
 19 86  1  0
 20 87  1  0
 21 88  1  0
 21 89  1  0
 26 90  1  0
 28 91  1  0
 28 92  1  0
 29 93  1  0
 30 94  1  0
 30 95  1  0
 31 96  1  0
 31 97  1  0
 32 98  1  0
 33 99  1  0
 33100  1  0
 35101  1  0
 39102  1  0
 39103  1  0
 40104  1  0
 41105  1  0
 41106  1  0
 42107  1  0
 42108  1  0
 43109  1  0
 44110  1  0
 44111  1  0
 49112  1  0
 51113  1  0
 51114  1  0
 52115  1  0
 53116  1  0
 53117  1  0
 54118  1  0
 54119  1  0
 55120  1  0
 56121  1  0
 56122  1  0
 60123  1  0
 60124  1  0
 61125  1  0
 62126  1  0
 62127  1  0
 63128  1  0
 63129  1  0
 64130  1  0
 65131  1  0
 65132  1  0
M  END
