
     RDKit          3D

188198  0  0  0  0  0  0  0  0999 V2000
   -6.3457   -2.5783   -6.7781 O   0  0  0  0  0  0  0  0  0  0  0  0
   -5.1054   -2.7676   -6.9623 C   0  0  0  0  0  0  0  0  0  0  0  0
   -4.4164   -3.5498   -5.8889 C   0  0  0  0  0  0  0  0  0  0  0  0
   -5.1943   -5.1093   -5.5996 Cl  0  0  0  0  0  0  0  0  0  0  0  0
   -4.3695   -1.6215   -7.5108 C   0  0  0  0  0  0  0  0  0  0  0  0
   -4.8270   -0.9127   -8.6109 C   0  0  0  0  0  0  0  0  0  0  0  0
   -4.3066    0.3418   -8.9059 C   0  0  0  0  0  0  0  0  0  0  0  0
   -3.4518    0.9854   -8.0179 C   0  0  0  0  0  0  0  0  0  0  0  0
   -3.0591    2.3005   -7.8861 C   0  0  0  0  0  0  0  0  0  0  0  0
   -2.8716    2.5309   -6.5305 C   0  0  0  0  0  0  0  0  0  0  0  0
   -2.7182    1.3248   -5.9316 N   0  0  0  0  0  0  0  0  0  0  0  0
   -2.8517    1.1882   -4.5121 C   0  0  0  0  0  0  0  0  0  0  0  0
   -3.9340    0.7763   -3.9925 O   0  0  0  0  0  0  0  0  0  0  0  0
   -1.8194    1.6310   -3.5544 C   0  0  0  0  0  0  0  0  0  0  0  0
   -2.3250    2.9382   -2.9531 C   0  0  0  0  0  0  0  0  0  0  0  0
   -3.1615    2.7249   -1.8011 N   0  0  0  0  0  0  0  0  0  0  0  0
   -3.3376    4.0253   -1.1588 C   0  0  0  0  0  0  0  0  0  0  0  0
   -2.7613    4.0269    0.2499 C   0  0  0  0  0  0  0  0  0  0  0  0
   -3.1319    2.8036    0.8915 N   0  0  0  0  0  0  0  0  0  0  0  0
   -2.0461    2.0895    1.4987 C   0  0  0  0  0  0  0  0  0  0  0  0
   -2.0489    2.1208    3.0002 C   0  0  0  0  0  0  0  0  0  0  0  0
   -0.9897    3.0508    3.5698 C   0  0  0  0  0  0  0  0  0  0  0  0
    0.0057    3.4304    2.6095 N   0  0  0  0  0  0  0  0  0  0  0  0
    1.1352    2.5335    2.6005 C   0  0  0  0  0  0  0  0  0  0  0  0
    1.9957    2.8973    1.4233 C   0  0  0  0  0  0  0  0  0  0  0  0
    2.7822    1.7350    1.0156 N   0  0  0  0  0  0  0  0  0  0  0  0
    4.1195    2.2033    0.7871 C   0  0  0  0  0  0  0  0  0  0  0  0
    4.8666    1.4564   -0.2739 C   0  0  0  0  0  0  0  0  0  0  0  0
    4.1403    1.3409   -1.5788 C   0  0  0  0  0  0  0  0  0  0  0  0
    2.7482    1.0131   -1.4625 N   0  0  0  0  0  0  0  0  0  0  0  0
    1.9230    1.8498   -2.3291 C   0  0  0  0  0  0  0  0  0  0  0  0
    1.7964    1.2967   -3.7179 C   0  0  0  0  0  0  0  0  0  0  0  0
    0.4685    0.8577   -4.0523 N   0  0  0  0  0  0  0  0  0  0  0  0
   -0.4894    1.9204   -4.1760 C   0  0  0  0  0  0  0  0  0  0  0  0
    5.3479    0.0935    0.2082 C   0  0  0  0  0  0  0  0  0  0  0  0
    4.3793   -0.8962   -0.1842 N   0  0  0  0  0  0  0  0  0  0  0  0
    4.8492   -2.2443    0.0138 C   0  0  0  0  0  0  0  0  0  0  0  0
    4.1511   -3.1680   -0.9497 C   0  0  0  0  0  0  0  0  0  0  0  0
    3.3133   -4.1416   -0.2928 N   0  0  0  0  0  0  0  0  0  0  0  0
    2.1714   -3.5184    0.3725 C   0  0  0  0  0  0  0  0  0  0  0  0
    1.0288   -4.4871    0.2599 C   0  0  0  0  0  0  0  0  0  0  0  0
    0.6065   -4.5081   -1.2028 C   0  0  0  0  0  0  0  0  0  0  0  0
   -0.6088   -3.7729   -1.4357 N   0  0  0  0  0  0  0  0  0  0  0  0
   -0.3912   -2.4153   -1.8636 C   0  0  0  0  0  0  0  0  0  0  0  0
   -1.7006   -1.8699   -2.4228 C   0  0  0  0  0  0  0  0  0  0  0  0
   -1.3821   -0.6760   -3.1482 N   0  0  0  0  0  0  0  0  0  0  0  0
   -1.7499    0.5438   -2.4876 C   0  0  0  0  0  0  0  0  0  0  0  0
   -0.1359   -4.1678    1.1413 C   0  0  0  0  0  0  0  0  0  0  0  0
   -0.0324   -2.8583    1.7774 N   0  0  0  0  0  0  0  0  0  0  0  0
   -1.3195   -2.6608    2.4414 C   0  0  0  0  0  0  0  0  0  0  0  0
   -1.3085   -1.4939    3.3839 C   0  0  0  0  0  0  0  0  0  0  0  0
   -1.7573   -0.3077    2.6737 N   0  0  0  0  0  0  0  0  0  0  0  0
   -1.8119    0.7684    3.6262 C   0  0  0  0  0  0  0  0  0  0  0  0
    1.5549   -5.8207    0.6893 C   0  0  0  0  0  0  0  0  0  0  0  0
    1.9280   -6.6145   -0.2212 O   0  0  0  0  0  0  0  0  0  0  0  0
    1.2414   -6.3944    1.9537 N   0  0  0  0  0  0  0  0  0  0  0  0
    0.4448   -7.4556    2.2287 C   0  0  0  0  0  0  0  0  0  0  0  0
    0.2330   -7.5406    3.5990 C   0  0  0  0  0  0  0  0  0  0  0  0
    1.1330   -6.6655    4.1722 C   0  0  0  0  0  0  0  0  0  0  0  0
    1.2275   -6.0622    5.4200 C   0  0  0  0  0  0  0  0  0  0  0  0
    2.2003   -5.1001    5.6377 C   0  0  0  0  0  0  0  0  0  0  0  0
    3.1825   -4.8971    4.6860 C   0  0  0  0  0  0  0  0  0  0  0  0
    3.0484   -5.5050    3.4645 C   0  0  0  0  0  0  0  0  0  0  0  0
    1.8279   -6.0728    3.1253 C   0  0  0  0  0  0  0  0  0  0  0  0
    4.4407   -4.2453    5.0685 C   0  0  0  0  0  0  0  0  0  0  0  0
    5.2694   -4.9088    5.7541 O   0  0  0  0  0  0  0  0  0  0  0  0
    4.6485   -2.7887    4.9368 C   0  0  0  0  0  0  0  0  0  0  0  0
    3.1612   -1.9407    4.4652 Cl  0  0  0  0  0  0  0  0  0  0  0  0
    6.1099    2.2454   -0.5499 C   0  0  0  0  0  0  0  0  0  0  0  0
    6.7561    1.9582   -1.5787 O   0  0  0  0  0  0  0  0  0  0  0  0
    6.3926    3.4814    0.0789 N   0  0  0  0  0  0  0  0  0  0  0  0
    7.2189    3.6196    1.1406 C   0  0  0  0  0  0  0  0  0  0  0  0
    7.6096    4.9323    1.2814 C   0  0  0  0  0  0  0  0  0  0  0  0
    6.9839    5.6355    0.2864 C   0  0  0  0  0  0  0  0  0  0  0  0
    6.9569    6.9872   -0.0269 C   0  0  0  0  0  0  0  0  0  0  0  0
    6.0463    7.4500   -0.9683 C   0  0  0  0  0  0  0  0  0  0  0  0
    5.2561    6.5601   -1.6539 C   0  0  0  0  0  0  0  0  0  0  0  0
    5.5122    5.2014   -1.5179 C   0  0  0  0  0  0  0  0  0  0  0  0
    6.2508    4.7185   -0.4457 C   0  0  0  0  0  0  0  0  0  0  0  0
    4.1584    7.0096   -2.5189 C   0  0  0  0  0  0  0  0  0  0  0  0
    3.1140    7.4377   -1.9574 O   0  0  0  0  0  0  0  0  0  0  0  0
    3.9594    6.2499   -3.7885 C   0  0  0  0  0  0  0  0  0  0  0  0
    3.0653    7.2328   -4.9690 Cl  0  0  0  0  0  0  0  0  0  0  0  0
   -3.3556    2.6358    3.5194 C   0  0  0  0  0  0  0  0  0  0  0  0
   -3.4834    3.8971    3.5728 O   0  0  0  0  0  0  0  0  0  0  0  0
   -4.1969    1.8944    4.3790 N   0  0  0  0  0  0  0  0  0  0  0  0
   -4.2703    2.1066    5.7155 C   0  0  0  0  0  0  0  0  0  0  0  0
   -5.3600    1.4211    6.2379 C   0  0  0  0  0  0  0  0  0  0  0  0
   -6.1170    1.0366    5.1443 C   0  0  0  0  0  0  0  0  0  0  0  0
   -7.4420    0.7137    4.9821 C   0  0  0  0  0  0  0  0  0  0  0  0
   -7.8220    0.1852    3.7590 C   0  0  0  0  0  0  0  0  0  0  0  0
   -6.8767   -0.1125    2.8120 C   0  0  0  0  0  0  0  0  0  0  0  0
   -5.6778    0.5824    2.8806 C   0  0  0  0  0  0  0  0  0  0  0  0
   -5.2793    1.1622    4.0625 C   0  0  0  0  0  0  0  0  0  0  0  0
   -7.1334   -1.0230    1.7019 C   0  0  0  0  0  0  0  0  0  0  0  0
   -6.8466   -0.6048    0.5450 O   0  0  0  0  0  0  0  0  0  0  0  0
   -7.0777   -2.4973    1.9149 C   0  0  0  0  0  0  0  0  0  0  0  0
   -7.6674   -2.9065    3.5348 Cl  0  0  0  0  0  0  0  0  0  0  0  0
   -3.2504    0.4059   -6.7741 C   0  0  0  0  0  0  0  0  0  0  0  0
   -3.4287   -0.9705   -6.7222 C   0  0  0  0  0  0  0  0  0  0  0  0
   -4.4387   -2.9172   -4.9657 H   0  0  0  0  0  0  0  0  0  0  0  0
   -3.3569   -3.6313   -6.1823 H   0  0  0  0  0  0  0  0  0  0  0  0
   -5.7809   -1.2229   -9.0415 H   0  0  0  0  0  0  0  0  0  0  0  0
   -4.8038    0.8778   -9.7163 H   0  0  0  0  0  0  0  0  0  0  0  0
   -3.3125    3.0486   -8.6368 H   0  0  0  0  0  0  0  0  0  0  0  0
   -2.3804    3.4407   -6.1845 H   0  0  0  0  0  0  0  0  0  0  0  0
   -2.8373    3.5337   -3.7482 H   0  0  0  0  0  0  0  0  0  0  0  0
   -1.4556    3.5492   -2.6329 H   0  0  0  0  0  0  0  0  0  0  0  0
   -4.1146    2.4293   -2.1394 H   0  0  0  0  0  0  0  0  0  0  0  0
   -4.4097    4.3096   -1.0895 H   0  0  0  0  0  0  0  0  0  0  0  0
   -2.8296    4.8374   -1.7039 H   0  0  0  0  0  0  0  0  0  0  0  0
   -1.6677    4.1284    0.1509 H   0  0  0  0  0  0  0  0  0  0  0  0
   -3.1700    4.9021    0.7743 H   0  0  0  0  0  0  0  0  0  0  0  0
   -4.0085    2.8235    1.4264 H   0  0  0  0  0  0  0  0  0  0  0  0
   -2.0975    1.0504    1.0830 H   0  0  0  0  0  0  0  0  0  0  0  0
   -1.1067    2.5076    1.0543 H   0  0  0  0  0  0  0  0  0  0  0  0
   -1.4278    3.9899    3.9735 H   0  0  0  0  0  0  0  0  0  0  0  0
   -0.4491    2.5873    4.4322 H   0  0  0  0  0  0  0  0  0  0  0  0
    0.3838    4.3857    2.8294 H   0  0  0  0  0  0  0  0  0  0  0  0
    0.7748    1.4923    2.4295 H   0  0  0  0  0  0  0  0  0  0  0  0
    1.7164    2.5586    3.5384 H   0  0  0  0  0  0  0  0  0  0  0  0
    2.6408    3.7699    1.6638 H   0  0  0  0  0  0  0  0  0  0  0  0
    1.3315    3.2386    0.5956 H   0  0  0  0  0  0  0  0  0  0  0  0
    2.7509    1.0256    1.7679 H   0  0  0  0  0  0  0  0  0  0  0  0
    4.1236    3.2789    0.5535 H   0  0  0  0  0  0  0  0  0  0  0  0
    4.6869    2.0620    1.7404 H   0  0  0  0  0  0  0  0  0  0  0  0
    4.2263    2.2291   -2.2202 H   0  0  0  0  0  0  0  0  0  0  0  0
    4.6226    0.5016   -2.1415 H   0  0  0  0  0  0  0  0  0  0  0  0
    2.5320    0.0229   -1.7512 H   0  0  0  0  0  0  0  0  0  0  0  0
    2.4496    2.8269   -2.3908 H   0  0  0  0  0  0  0  0  0  0  0  0
    0.9664    2.0068   -1.8130 H   0  0  0  0  0  0  0  0  0  0  0  0
    2.2122    1.9855   -4.4955 H   0  0  0  0  0  0  0  0  0  0  0  0
    2.4499    0.3888   -3.7628 H   0  0  0  0  0  0  0  0  0  0  0  0
    0.5456    0.3327   -4.9607 H   0  0  0  0  0  0  0  0  0  0  0  0
   -0.0295    2.8199   -3.6926 H   0  0  0  0  0  0  0  0  0  0  0  0
   -0.5482    2.1811   -5.2592 H   0  0  0  0  0  0  0  0  0  0  0  0
    6.3249   -0.1556   -0.2769 H   0  0  0  0  0  0  0  0  0  0  0  0
    5.5307    0.0665    1.2911 H   0  0  0  0  0  0  0  0  0  0  0  0
    3.4829   -0.7475    0.3119 H   0  0  0  0  0  0  0  0  0  0  0  0
    4.5301   -2.5585    1.0390 H   0  0  0  0  0  0  0  0  0  0  0  0
    5.9480   -2.3090   -0.0837 H   0  0  0  0  0  0  0  0  0  0  0  0
    3.4903   -2.6224   -1.6671 H   0  0  0  0  0  0  0  0  0  0  0  0
    4.9003   -3.7299   -1.5382 H   0  0  0  0  0  0  0  0  0  0  0  0
    3.8704   -4.7404    0.3367 H   0  0  0  0  0  0  0  0  0  0  0  0
    2.3966   -3.2102    1.4027 H   0  0  0  0  0  0  0  0  0  0  0  0
    1.9866   -2.5730   -0.1982 H   0  0  0  0  0  0  0  0  0  0  0  0
    1.3913   -4.0575   -1.8615 H   0  0  0  0  0  0  0  0  0  0  0  0
    0.5382   -5.5701   -1.5065 H   0  0  0  0  0  0  0  0  0  0  0  0
   -1.2274   -4.2627   -2.1158 H   0  0  0  0  0  0  0  0  0  0  0  0
    0.3317   -2.4402   -2.7115 H   0  0  0  0  0  0  0  0  0  0  0  0
   -0.0872   -1.7317   -1.0583 H   0  0  0  0  0  0  0  0  0  0  0  0
   -2.4672   -1.7436   -1.6441 H   0  0  0  0  0  0  0  0  0  0  0  0
   -2.0316   -2.6271   -3.1782 H   0  0  0  0  0  0  0  0  0  0  0  0
   -1.6107   -0.6965   -4.1538 H   0  0  0  0  0  0  0  0  0  0  0  0
   -2.8027    0.4156   -2.1290 H   0  0  0  0  0  0  0  0  0  0  0  0
   -1.1017    0.8154   -1.6450 H   0  0  0  0  0  0  0  0  0  0  0  0
   -0.2789   -4.8917    1.9747 H   0  0  0  0  0  0  0  0  0  0  0  0
   -1.1141   -4.1527    0.6002 H   0  0  0  0  0  0  0  0  0  0  0  0
    0.7030   -2.9319    2.5291 H   0  0  0  0  0  0  0  0  0  0  0  0
   -2.1157   -2.5506    1.6922 H   0  0  0  0  0  0  0  0  0  0  0  0
   -1.4971   -3.6009    3.0202 H   0  0  0  0  0  0  0  0  0  0  0  0
   -2.0959   -1.6962    4.1537 H   0  0  0  0  0  0  0  0  0  0  0  0
   -0.3552   -1.3496    3.9104 H   0  0  0  0  0  0  0  0  0  0  0  0
   -2.6798   -0.5271    2.2540 H   0  0  0  0  0  0  0  0  0  0  0  0
   -2.5979    0.4935    4.3698 H   0  0  0  0  0  0  0  0  0  0  0  0
   -0.8530    0.7269    4.2033 H   0  0  0  0  0  0  0  0  0  0  0  0
   -0.2098   -7.9547    1.5191 H   0  0  0  0  0  0  0  0  0  0  0  0
   -0.6045   -8.0026    4.1030 H   0  0  0  0  0  0  0  0  0  0  0  0
    0.5558   -6.3457    6.2241 H   0  0  0  0  0  0  0  0  0  0  0  0
    2.1412   -4.4691    6.5118 H   0  0  0  0  0  0  0  0  0  0  0  0
    3.7003   -5.1850    2.6788 H   0  0  0  0  0  0  0  0  0  0  0  0
    5.4388   -2.5456    4.1983 H   0  0  0  0  0  0  0  0  0  0  0  0
    4.9680   -2.3828    5.9130 H   0  0  0  0  0  0  0  0  0  0  0  0
    7.7895    2.8052    1.5871 H   0  0  0  0  0  0  0  0  0  0  0  0
    8.4483    5.3318    1.8537 H   0  0  0  0  0  0  0  0  0  0  0  0
    7.7555    7.6494    0.2763 H   0  0  0  0  0  0  0  0  0  0  0  0
    5.9379    8.5082   -1.1935 H   0  0  0  0  0  0  0  0  0  0  0  0
    4.7114    4.5476   -1.8570 H   0  0  0  0  0  0  0  0  0  0  0  0
    3.4217    5.2948   -3.6098 H   0  0  0  0  0  0  0  0  0  0  0  0
    4.9489    5.9887   -4.2360 H   0  0  0  0  0  0  0  0  0  0  0  0
   -3.3971    2.3082    6.3359 H   0  0  0  0  0  0  0  0  0  0  0  0
   -5.6922    1.4075    7.2685 H   0  0  0  0  0  0  0  0  0  0  0  0
   -8.1596    0.9804    5.7343 H   0  0  0  0  0  0  0  0  0  0  0  0
   -8.8730    0.0130    3.5215 H   0  0  0  0  0  0  0  0  0  0  0  0
   -4.9764    0.5986    2.0472 H   0  0  0  0  0  0  0  0  0  0  0  0
   -6.0168   -2.7941    1.7840 H   0  0  0  0  0  0  0  0  0  0  0  0
   -7.6861   -3.0358    1.1554 H   0  0  0  0  0  0  0  0  0  0  0  0
   -3.1288   -1.4861   -5.8290 H   0  0  0  0  0  0  0  0  0  0  0  0
  1  2  2  0
  2  3  1  0
  3  4  1  0
  2  5  1  0
  5  6  2  0
  6  7  1  0
  7  8  2  0
  8  9  1  0
  9 10  2  0
 10 11  1  0
 11 12  1  0
 12 13  2  0
 12 14  1  0
 14 15  1  0
 15 16  1  0
 16 17  1  0
 17 18  1  0
 18 19  1  0
 19 20  1  0
 20 21  1  0
 21 22  1  0
 22 23  1  0
 23 24  1  0
 24 25  1  0
 25 26  1  0
 26 27  1  0
 27 28  1  0
 28 29  1  0
 29 30  1  0
 30 31  1  0
 31 32  1  0
 32 33  1  0
 33 34  1  0
 28 35  1  0
 35 36  1  0
 36 37  1  0
 37 38  1  0
 38 39  1  0
 39 40  1  0
 40 41  1  0
 41 42  1  0
 42 43  1  0
 43 44  1  0
 44 45  1  0
 45 46  1  0
 46 47  1  0
 41 48  1  0
 48 49  1  0
 49 50  1  0
 50 51  1  0
 51 52  1  0
 52 53  1  0
 41 54  1  0
 54 55  2  0
 54 56  1  0
 56 57  1  0
 57 58  2  0
 58 59  1  0
 59 60  2  0
 60 61  1  0
 61 62  2  0
 62 63  1  0
 63 64  2  0
 62 65  1  0
 65 66  2  0
 65 67  1  0
 67 68  1  0
 28 69  1  0
 69 70  2  0
 69 71  1  0
 71 72  1  0
 72 73  2  0
 73 74  1  0
 74 75  2  0
 75 76  1  0
 76 77  2  0
 77 78  1  0
 78 79  2  0
 77 80  1  0
 80 81  2  0
 80 82  1  0
 82 83  1  0
 21 84  1  0
 84 85  2  0
 84 86  1  0
 86 87  1  0
 87 88  2  0
 88 89  1  0
 89 90  2  0
 90 91  1  0
 91 92  2  0
 92 93  1  0
 93 94  2  0
 92 95  1  0
 95 96  2  0
 95 97  1  0
 97 98  1  0
 11 99  1  0
 99100  2  0
100  5  1  0
 99  8  1  0
 34 14  1  0
 64 56  1  0
 79 71  1  0
 94 86  1  0
 47 14  1  0
 64 59  1  0
 79 74  1  0
 94 89  1  0
 53 21  1  0
  3101  1  0
  3102  1  0
  6103  1  0
  7104  1  0
  9105  1  0
 10106  1  0
 15107  1  0
 15108  1  0
 16109  1  0
 17110  1  0
 17111  1  0
 18112  1  0
 18113  1  0
 19114  1  0
 20115  1  0
 20116  1  0
 22117  1  0
 22118  1  0
 23119  1  0
 24120  1  0
 24121  1  0
 25122  1  0
 25123  1  0
 26124  1  0
 27125  1  0
 27126  1  0
 29127  1  0
 29128  1  0
 30129  1  0
 31130  1  0
 31131  1  0
 32132  1  0
 32133  1  0
 33134  1  0
 34135  1  0
 34136  1  0
 35137  1  0
 35138  1  0
 36139  1  0
 37140  1  0
 37141  1  0
 38142  1  0
 38143  1  0
 39144  1  0
 40145  1  0
 40146  1  0
 42147  1  0
 42148  1  0
 43149  1  0
 44150  1  0
 44151  1  0
 45152  1  0
 45153  1  0
 46154  1  0
 47155  1  0
 47156  1  0
 48157  1  0
 48158  1  0
 49159  1  0
 50160  1  0
 50161  1  0
 51162  1  0
 51163  1  0
 52164  1  0
 53165  1  0
 53166  1  0
 57167  1  0
 58168  1  0
 60169  1  0
 61170  1  0
 63171  1  0
 67172  1  0
 67173  1  0
 72174  1  0
 73175  1  0
 75176  1  0
 76177  1  0
 78178  1  0
 82179  1  0
 82180  1  0
 87181  1  0
 88182  1  0
 90183  1  0
 91184  1  0
 93185  1  0
 97186  1  0
 97187  1  0
100188  1  0
M  END
