
     RDKit          3D

132138  0  0  0  0  0  0  0  0999 V2000
    3.8464    3.7476   -1.5858 C   0  0  0  0  0  0  0  0  0  0  0  0
    2.7442    3.8673   -0.7489 C   0  0  0  0  0  0  0  0  0  0  0  0
    1.5293    3.5236   -1.3341 C   0  0  0  0  0  0  0  0  0  0  0  0
    1.3303    3.6486    0.1593 C   0  0  0  0  0  0  0  0  0  0  0  0
    0.7429    4.8883    0.5559 N   0  0  0  0  0  0  0  0  0  0  0  0
   -0.3133    4.7773    1.5218 C   0  0  0  0  0  0  0  0  0  0  0  0
    0.1159    4.3732    2.8950 C   0  0  0  0  0  0  0  0  0  0  0  0
   -0.1508    2.9878    3.1669 N   0  0  0  0  0  0  0  0  0  0  0  0
   -0.0980    2.6554    4.5806 C   0  0  0  0  0  0  0  0  0  0  0  0
   -0.7121    1.2816    4.7594 C   0  0  0  0  0  0  0  0  0  0  0  0
    0.4577    1.1869    4.0109 C   0  0  0  0  0  0  0  0  0  0  0  0
    0.9196   -0.1076    3.8327 C   0  0  0  0  0  0  0  0  0  0  0  0
    0.6546   -1.0294    4.8316 C   0  0  0  0  0  0  0  0  0  0  0  0
   -0.6075   -0.9249    5.4100 C   0  0  0  0  0  0  0  0  0  0  0  0
    0.1296   -2.1141    5.9817 C   0  0  0  0  0  0  0  0  0  0  0  0
    0.7707   -2.8869    4.9568 N   0  0  0  0  0  0  0  0  0  0  0  0
   -0.1126   -3.5029    4.0103 C   0  0  0  0  0  0  0  0  0  0  0  0
    0.5130   -4.7154    3.3316 C   0  0  0  0  0  0  0  0  0  0  0  0
    1.8183   -4.4930    2.8266 N   0  0  0  0  0  0  0  0  0  0  0  0
    2.1852   -5.1777    1.6270 C   0  0  0  0  0  0  0  0  0  0  0  0
    2.6900   -4.2587    0.5340 C   0  0  0  0  0  0  0  0  0  0  0  0
    1.5474   -4.9038    0.0739 C   0  0  0  0  0  0  0  0  0  0  0  0
    1.2240   -4.6960   -1.2282 C   0  0  0  0  0  0  0  0  0  0  0  0
    2.2124   -4.4191   -2.1229 C   0  0  0  0  0  0  0  0  0  0  0  0
    3.3793   -3.8625   -1.6082 C   0  0  0  0  0  0  0  0  0  0  0  0
    3.6316   -4.2796   -3.0399 C   0  0  0  0  0  0  0  0  0  0  0  0
    4.2792   -3.2516   -3.8173 N   0  0  0  0  0  0  0  0  0  0  0  0
    3.4053   -2.2084   -4.2794 C   0  0  0  0  0  0  0  0  0  0  0  0
    3.9552   -0.8465   -3.9903 C   0  0  0  0  0  0  0  0  0  0  0  0
    2.9978    0.2241   -4.0753 N   0  0  0  0  0  0  0  0  0  0  0  0
    3.5768    1.4369   -3.5803 C   0  0  0  0  0  0  0  0  0  0  0  0
    2.5653    2.4295   -3.0568 C   0  0  0  0  0  0  0  0  0  0  0  0
    3.8175    2.7147   -2.5135 C   0  0  0  0  0  0  0  0  0  0  0  0
    1.4799    3.3196   -2.7529 C   0  0  0  0  0  0  0  0  0  0  0  0
    0.4056    3.8209   -3.7205 C   0  0  0  0  0  0  0  0  0  0  0  0
   -0.6798    2.8800   -3.8340 N   0  0  0  0  0  0  0  0  0  0  0  0
   -1.6973    3.4686   -4.6526 C   0  0  0  0  0  0  0  0  0  0  0  0
   -2.9905    2.7178   -4.3525 C   0  0  0  0  0  0  0  0  0  0  0  0
   -3.2919    2.8755   -2.9521 N   0  0  0  0  0  0  0  0  0  0  0  0
   -3.8144    1.6487   -2.3544 C   0  0  0  0  0  0  0  0  0  0  0  0
   -2.6368    0.8613   -1.8481 C   0  0  0  0  0  0  0  0  0  0  0  0
   -2.9736    1.8127   -0.8887 C   0  0  0  0  0  0  0  0  0  0  0  0
   -2.6016    1.4781    0.4092 C   0  0  0  0  0  0  0  0  0  0  0  0
   -2.6741    0.1222    0.6958 C   0  0  0  0  0  0  0  0  0  0  0  0
   -2.3295   -0.7166   -0.3626 C   0  0  0  0  0  0  0  0  0  0  0  0
   -3.1174   -1.5041    0.6433 C   0  0  0  0  0  0  0  0  0  0  0  0
   -4.0766   -0.7070    1.3426 N   0  0  0  0  0  0  0  0  0  0  0  0
   -4.7825   -1.6197    2.2410 C   0  0  0  0  0  0  0  0  0  0  0  0
   -4.7963   -1.0981    3.6718 C   0  0  0  0  0  0  0  0  0  0  0  0
   -3.5310   -1.2239    4.3266 N   0  0  0  0  0  0  0  0  0  0  0  0
   -3.0237   -0.0061    4.8617 C   0  0  0  0  0  0  0  0  0  0  0  0
   -1.5023    0.0977    4.9517 C   0  0  0  0  0  0  0  0  0  0  0  0
   -1.7086   -0.1725   -1.5226 C   0  0  0  0  0  0  0  0  0  0  0  0
   -0.4890   -0.6654   -2.2955 C   0  0  0  0  0  0  0  0  0  0  0  0
    0.5975   -1.0608   -1.4552 N   0  0  0  0  0  0  0  0  0  0  0  0
    0.8537   -0.2354   -0.3271 C   0  0  0  0  0  0  0  0  0  0  0  0
    2.3307   -0.1167   -0.1325 C   0  0  0  0  0  0  0  0  0  0  0  0
    2.8954   -1.0692    0.7840 N   0  0  0  0  0  0  0  0  0  0  0  0
    3.8781   -1.9377    0.1929 C   0  0  0  0  0  0  0  0  0  0  0  0
    3.3192   -3.2767   -0.2985 C   0  0  0  0  0  0  0  0  0  0  0  0
    4.8191    4.0707   -1.2118 H   0  0  0  0  0  0  0  0  0  0  0  0
    2.8264    4.1565    0.2955 H   0  0  0  0  0  0  0  0  0  0  0  0
    2.3051    3.5772    0.6640 H   0  0  0  0  0  0  0  0  0  0  0  0
    0.7023    2.8383    0.5555 H   0  0  0  0  0  0  0  0  0  0  0  0
    0.3698    5.3733   -0.2781 H   0  0  0  0  0  0  0  0  0  0  0  0
   -0.7943    5.7871    1.5827 H   0  0  0  0  0  0  0  0  0  0  0  0
   -1.0960    4.0964    1.1651 H   0  0  0  0  0  0  0  0  0  0  0  0
   -0.4638    4.9632    3.6500 H   0  0  0  0  0  0  0  0  0  0  0  0
    1.1737    4.6531    3.0502 H   0  0  0  0  0  0  0  0  0  0  0  0
   -1.1421    2.8048    2.8699 H   0  0  0  0  0  0  0  0  0  0  0  0
   -0.5433    3.4102    5.2314 H   0  0  0  0  0  0  0  0  0  0  0  0
    0.9677    2.5927    4.8385 H   0  0  0  0  0  0  0  0  0  0  0  0
    1.0580    2.0634    3.7594 H   0  0  0  0  0  0  0  0  0  0  0  0
    1.9467   -0.1563    3.4625 H   0  0  0  0  0  0  0  0  0  0  0  0
    1.4207   -1.6950    5.2377 H   0  0  0  0  0  0  0  0  0  0  0  0
    0.9367   -1.7614    6.6649 H   0  0  0  0  0  0  0  0  0  0  0  0
   -0.4944   -2.7804    6.5763 H   0  0  0  0  0  0  0  0  0  0  0  0
    1.2329   -3.6912    5.4624 H   0  0  0  0  0  0  0  0  0  0  0  0
   -1.0025   -3.8708    4.5771 H   0  0  0  0  0  0  0  0  0  0  0  0
   -0.5015   -2.8344    3.2319 H   0  0  0  0  0  0  0  0  0  0  0  0
    0.5801   -5.4956    4.1318 H   0  0  0  0  0  0  0  0  0  0  0  0
   -0.2323   -5.0787    2.6124 H   0  0  0  0  0  0  0  0  0  0  0  0
    2.5112   -4.5432    3.5928 H   0  0  0  0  0  0  0  0  0  0  0  0
    1.3276   -5.7518    1.2837 H   0  0  0  0  0  0  0  0  0  0  0  0
    2.9771   -5.9195    1.9034 H   0  0  0  0  0  0  0  0  0  0  0  0
    1.0523   -5.6635    0.6850 H   0  0  0  0  0  0  0  0  0  0  0  0
    0.3039   -5.1443   -1.5987 H   0  0  0  0  0  0  0  0  0  0  0  0
    2.1288   -4.6858   -3.1798 H   0  0  0  0  0  0  0  0  0  0  0  0
    2.6781   -4.4778   -3.5467 H   0  0  0  0  0  0  0  0  0  0  0  0
    4.3260   -5.1581   -3.0626 H   0  0  0  0  0  0  0  0  0  0  0  0
    4.8720   -3.6688   -4.5557 H   0  0  0  0  0  0  0  0  0  0  0  0
    3.3639   -2.3063   -5.3948 H   0  0  0  0  0  0  0  0  0  0  0  0
    2.3801   -2.3812   -3.9299 H   0  0  0  0  0  0  0  0  0  0  0  0
    4.7640   -0.6489   -4.7232 H   0  0  0  0  0  0  0  0  0  0  0  0
    4.4425   -0.8142   -2.9855 H   0  0  0  0  0  0  0  0  0  0  0  0
    2.6602    0.3114   -5.0688 H   0  0  0  0  0  0  0  0  0  0  0  0
    4.2049    1.8987   -4.3846 H   0  0  0  0  0  0  0  0  0  0  0  0
    4.2788    1.1776   -2.7778 H   0  0  0  0  0  0  0  0  0  0  0  0
    4.7131    2.1650   -2.8066 H   0  0  0  0  0  0  0  0  0  0  0  0
   -0.0348    4.7898   -3.4710 H   0  0  0  0  0  0  0  0  0  0  0  0
    0.7549    4.0478   -4.7330 H   0  0  0  0  0  0  0  0  0  0  0  0
   -0.3486    2.0126   -4.3046 H   0  0  0  0  0  0  0  0  0  0  0  0
   -1.8650    4.5412   -4.4452 H   0  0  0  0  0  0  0  0  0  0  0  0
   -1.4160    3.3168   -5.7249 H   0  0  0  0  0  0  0  0  0  0  0  0
   -2.8865    1.6597   -4.6463 H   0  0  0  0  0  0  0  0  0  0  0  0
   -3.7580    3.1786   -5.0194 H   0  0  0  0  0  0  0  0  0  0  0  0
   -3.9858    3.6608   -2.8825 H   0  0  0  0  0  0  0  0  0  0  0  0
   -4.4320    1.0710   -3.0537 H   0  0  0  0  0  0  0  0  0  0  0  0
   -4.4554    1.9683   -1.5099 H   0  0  0  0  0  0  0  0  0  0  0  0
   -3.4743    2.7446   -1.1335 H   0  0  0  0  0  0  0  0  0  0  0  0
   -2.7693    2.1723    1.2163 H   0  0  0  0  0  0  0  0  0  0  0  0
   -2.5609   -0.2973    1.6718 H   0  0  0  0  0  0  0  0  0  0  0  0
   -3.6849   -2.3346    0.1534 H   0  0  0  0  0  0  0  0  0  0  0  0
   -2.4471   -1.9810    1.3699 H   0  0  0  0  0  0  0  0  0  0  0  0
   -4.8245   -0.3300    0.7016 H   0  0  0  0  0  0  0  0  0  0  0  0
   -5.8060   -1.8414    1.9009 H   0  0  0  0  0  0  0  0  0  0  0  0
   -4.2685   -2.6122    2.3090 H   0  0  0  0  0  0  0  0  0  0  0  0
   -5.0983   -0.0246    3.6170 H   0  0  0  0  0  0  0  0  0  0  0  0
   -5.6037   -1.6534    4.1895 H   0  0  0  0  0  0  0  0  0  0  0  0
   -3.6559   -1.8974    5.1252 H   0  0  0  0  0  0  0  0  0  0  0  0
   -3.5012    0.1718    5.8604 H   0  0  0  0  0  0  0  0  0  0  0  0
   -3.5143    0.7128    4.2075 H   0  0  0  0  0  0  0  0  0  0  0  0
   -0.7465   -1.4926   -2.9814 H   0  0  0  0  0  0  0  0  0  0  0  0
   -0.0035    0.0920   -2.9058 H   0  0  0  0  0  0  0  0  0  0  0  0
    1.3889   -1.3222   -2.0362 H   0  0  0  0  0  0  0  0  0  0  0  0
    0.3258    0.7173   -0.4688 H   0  0  0  0  0  0  0  0  0  0  0  0
    0.4043   -0.7391    0.5661 H   0  0  0  0  0  0  0  0  0  0  0  0
    2.6830    0.8706    0.1874 H   0  0  0  0  0  0  0  0  0  0  0  0
    2.8350   -0.3186   -1.1087 H   0  0  0  0  0  0  0  0  0  0  0  0
    2.1671   -1.6243    1.2998 H   0  0  0  0  0  0  0  0  0  0  0  0
    4.7926   -2.0738    0.8266 H   0  0  0  0  0  0  0  0  0  0  0  0
    4.2755   -1.2830   -0.5820 H   0  0  0  0  0  0  0  0  0  0  0  0
  1  2  2  0
  2  3  1  0
  3  4  1  0
  4  5  1  0
  5  6  1  0
  6  7  1  0
  7  8  1  0
  8  9  1  0
  9 10  1  0
 10 11  1  0
 11 12  2  0
 12 13  1  0
 13 14  2  0
 14 15  1  0
 15 16  1  0
 16 17  1  0
 17 18  1  0
 18 19  1  0
 19 20  1  0
 20 21  1  0
 21 22  2  0
 22 23  1  0
 23 24  2  0
 24 25  1  0
 25 26  1  0
 26 27  1  0
 27 28  1  0
 28 29  1  0
 29 30  1  0
 30 31  1  0
 31 32  1  0
 32 33  2  0
 32 34  1  0
 34 35  1  0
 35 36  1  0
 36 37  1  0
 37 38  1  0
 38 39  1  0
 39 40  1  0
 40 41  1  0
 41 42  2  0
 42 43  1  0
 43 44  2  0
 44 45  1  0
 45 46  1  0
 46 47  1  0
 47 48  1  0
 48 49  1  0
 49 50  1  0
 50 51  1  0
 51 52  1  0
 45 53  2  0
 53 54  1  0
 54 55  1  0
 55 56  1  0
 56 57  1  0
 57 58  1  0
 58 59  1  0
 59 60  1  0
 33  1  1  0
 53 41  1  0
 34  3  2  0
 52 10  2  0
 52 14  1  0
 60 21  1  0
 60 25  2  0
  1 61  1  0
  2 62  1  0
  4 63  1  0
  4 64  1  0
  5 65  1  0
  6 66  1  0
  6 67  1  0
  7 68  1  0
  7 69  1  0
  8 70  1  0
  9 71  1  0
  9 72  1  0
 11 73  1  0
 12 74  1  0
 13 75  1  0
 15 76  1  0
 15 77  1  0
 16 78  1  0
 17 79  1  0
 17 80  1  0
 18 81  1  0
 18 82  1  0
 19 83  1  0
 20 84  1  0
 20 85  1  0
 22 86  1  0
 23 87  1  0
 24 88  1  0
 26 89  1  0
 26 90  1  0
 27 91  1  0
 28 92  1  0
 28 93  1  0
 29 94  1  0
 29 95  1  0
 30 96  1  0
 31 97  1  0
 31 98  1  0
 33 99  1  0
 35100  1  0
 35101  1  0
 36102  1  0
 37103  1  0
 37104  1  0
 38105  1  0
 38106  1  0
 39107  1  0
 40108  1  0
 40109  1  0
 42110  1  0
 43111  1  0
 44112  1  0
 46113  1  0
 46114  1  0
 47115  1  0
 48116  1  0
 48117  1  0
 49118  1  0
 49119  1  0
 50120  1  0
 51121  1  0
 51122  1  0
 54123  1  0
 54124  1  0
 55125  1  0
 56126  1  0
 56127  1  0
 57128  1  0
 57129  1  0
 58130  1  0
 59131  1  0
 59132  1  0
M  END
