
     RDKit          3D

164174  0  0  0  0  0  0  0  0999 V2000
   -1.8159    7.2970    0.6631 C   0  0  0  0  0  0  0  0  0  0  0  0
   -1.0673    7.6468   -0.6007 C   0  0  0  0  0  0  0  0  0  0  0  0
   -1.9095    7.9488   -1.7189 N   0  0  0  0  0  0  0  0  0  0  0  0
   -1.6984    7.0529   -2.8563 C   0  0  0  0  0  0  0  0  0  0  0  0
   -1.7984    5.6329   -2.4632 C   0  0  0  0  0  0  0  0  0  0  0  0
   -2.8512    4.8224   -3.1461 C   0  0  0  0  0  0  0  0  0  0  0  0
   -2.6713    3.3713   -3.2172 C   0  0  0  0  0  0  0  0  0  0  0  0
   -1.4617    2.7021   -2.6390 C   0  0  0  0  0  0  0  0  0  0  0  0
   -0.7661    3.6541   -1.7318 C   0  0  0  0  0  0  0  0  0  0  0  0
   -0.5354    4.8212   -2.6637 C   0  0  0  0  0  0  0  0  0  0  0  0
   -0.6212    4.0879   -4.3494 S   0  0  0  0  0  0  0  0  0  0  0  0
   -0.4837    2.3270   -3.7197 C   0  0  0  0  0  0  0  0  0  0  0  0
   -0.9594    1.3650   -4.7213 C   0  0  0  0  0  0  0  0  0  0  0  0
   -2.1089    0.6883   -4.8149 N   0  0  0  0  0  0  0  0  0  0  0  0
   -3.0154    0.0317   -4.0343 C   0  0  0  0  0  0  0  0  0  0  0  0
   -3.5304   -1.3464   -4.4663 C   0  0  0  0  0  0  0  0  0  0  0  0
   -3.6387   -2.2949   -3.3964 N   0  0  0  0  0  0  0  0  0  0  0  0
   -3.3714   -3.6988   -3.6915 C   0  0  0  0  0  0  0  0  0  0  0  0
   -2.0393   -4.1957   -3.1245 C   0  0  0  0  0  0  0  0  0  0  0  0
   -2.1472   -4.4717   -1.6792 C   0  0  0  0  0  0  0  0  0  0  0  0
   -1.1697   -5.1477   -0.9639 N   0  0  0  0  0  0  0  0  0  0  0  0
   -0.6688   -4.6847    0.2919 C   0  0  0  0  0  0  0  0  0  0  0  0
    0.6729   -5.1361    0.7185 C   0  0  0  0  0  0  0  0  0  0  0  0
    1.8430   -4.3982    0.6409 N   0  0  0  0  0  0  0  0  0  0  0  0
    2.0721   -3.2296    1.3807 C   0  0  0  0  0  0  0  0  0  0  0  0
    3.2474   -2.3928    1.1655 C   0  0  0  0  0  0  0  0  0  0  0  0
    3.5697   -1.7016   -0.0968 C   0  0  0  0  0  0  0  0  0  0  0  0
    3.3579   -0.2812   -0.1459 N   0  0  0  0  0  0  0  0  0  0  0  0
    3.4749    0.3831   -1.3927 C   0  0  0  0  0  0  0  0  0  0  0  0
    2.5225    1.4965   -1.7018 C   0  0  0  0  0  0  0  0  0  0  0  0
    1.7242    1.3562   -2.8711 N   0  0  0  0  0  0  0  0  0  0  0  0
    0.9660    2.3611   -3.3989 C   0  0  0  0  0  0  0  0  0  0  0  0
    3.1166   -1.0347    2.3989 S   0  0  0  0  0  0  0  0  0  0  0  0
    4.7064   -1.3056    3.2417 C   0  0  0  0  0  0  0  0  0  0  0  0
    5.4574   -1.9991    2.1187 C   0  0  0  0  0  0  0  0  0  0  0  0
    4.4950   -3.0557    1.6725 C   0  0  0  0  0  0  0  0  0  0  0  0
    4.3782   -4.0791    2.7216 C   0  0  0  0  0  0  0  0  0  0  0  0
    4.2291   -3.6221    4.1321 C   0  0  0  0  0  0  0  0  0  0  0  0
    4.5918   -2.2093    4.4248 C   0  0  0  0  0  0  0  0  0  0  0  0
    3.6436   -1.5898    5.4472 C   0  0  0  0  0  0  0  0  0  0  0  0
    2.3199   -1.3951    4.9298 N   0  0  0  0  0  0  0  0  0  0  0  0
    1.4554   -0.9612    5.9935 C   0  0  0  0  0  0  0  0  0  0  0  0
    0.0175   -1.0528    5.4944 C   0  0  0  0  0  0  0  0  0  0  0  0
   -0.0988   -0.2363    4.2880 N   0  0  0  0  0  0  0  0  0  0  0  0
   -1.4901   -0.2813    3.8417 C   0  0  0  0  0  0  0  0  0  0  0  0
   -1.7877    0.8074    2.8322 C   0  0  0  0  0  0  0  0  0  0  0  0
   -2.1089    0.2871    1.4652 C   0  0  0  0  0  0  0  0  0  0  0  0
   -1.3177   -0.7596    0.9787 N   0  0  0  0  0  0  0  0  0  0  0  0
   -0.3268   -0.4094   -0.0387 C   0  0  0  0  0  0  0  0  0  0  0  0
   -0.5029   -1.0588   -1.3501 C   0  0  0  0  0  0  0  0  0  0  0  0
    0.3600   -1.9420   -1.9196 N   0  0  0  0  0  0  0  0  0  0  0  0
    0.9667   -2.0619   -3.1239 C   0  0  0  0  0  0  0  0  0  0  0  0
    0.9701   -3.3001   -3.9755 C   0  0  0  0  0  0  0  0  0  0  0  0
    1.1057   -4.5998   -3.2909 C   0  0  0  0  0  0  0  0  0  0  0  0
    0.0389   -5.6116   -3.5012 C   0  0  0  0  0  0  0  0  0  0  0  0
   -1.2940   -5.1586   -3.9461 C   0  0  0  0  0  0  0  0  0  0  0  0
   -0.8996   -4.5101   -5.2702 C   0  0  0  0  0  0  0  0  0  0  0  0
   -0.1508   -3.2778   -4.9741 C   0  0  0  0  0  0  0  0  0  0  0  0
   -1.2988   -2.7378   -3.7646 S   0  0  0  0  0  0  0  0  0  0  0  0
   -0.3536    1.9401    2.7761 S   0  0  0  0  0  0  0  0  0  0  0  0
   -1.2343    3.4142    3.4180 C   0  0  0  0  0  0  0  0  0  0  0  0
   -2.2111    2.7043    4.3107 C   0  0  0  0  0  0  0  0  0  0  0  0
   -2.8388    1.6846    3.4100 C   0  0  0  0  0  0  0  0  0  0  0  0
   -3.7246    2.3977    2.4605 C   0  0  0  0  0  0  0  0  0  0  0  0
   -3.1825    3.6157    1.8123 C   0  0  0  0  0  0  0  0  0  0  0  0
   -1.8538    4.1069    2.2465 C   0  0  0  0  0  0  0  0  0  0  0  0
   -1.8654    5.6262    2.4088 C   0  0  0  0  0  0  0  0  0  0  0  0
   -1.0680    6.3018    1.4276 N   0  0  0  0  0  0  0  0  0  0  0  0
   -2.8344    6.9276    0.4786 H   0  0  0  0  0  0  0  0  0  0  0  0
   -1.9222    8.1773    1.3405 H   0  0  0  0  0  0  0  0  0  0  0  0
   -0.4840    8.5735   -0.3672 H   0  0  0  0  0  0  0  0  0  0  0  0
   -0.3263    6.8573   -0.7747 H   0  0  0  0  0  0  0  0  0  0  0  0
   -1.7914    8.9360   -2.0585 H   0  0  0  0  0  0  0  0  0  0  0  0
   -2.4303    7.3832   -3.6289 H   0  0  0  0  0  0  0  0  0  0  0  0
   -0.6893    7.3247   -3.2572 H   0  0  0  0  0  0  0  0  0  0  0  0
   -2.0594    5.6138   -1.3726 H   0  0  0  0  0  0  0  0  0  0  0  0
   -3.8218    5.0815   -2.6449 H   0  0  0  0  0  0  0  0  0  0  0  0
   -2.9658    5.3110   -4.1519 H   0  0  0  0  0  0  0  0  0  0  0  0
   -2.6830    3.1139   -4.3096 H   0  0  0  0  0  0  0  0  0  0  0  0
   -3.5924    2.8687   -2.8223 H   0  0  0  0  0  0  0  0  0  0  0  0
   -1.7770    1.8478   -2.0083 H   0  0  0  0  0  0  0  0  0  0  0  0
    0.0965    3.3022   -1.1891 H   0  0  0  0  0  0  0  0  0  0  0  0
   -1.5207    3.8806   -0.9327 H   0  0  0  0  0  0  0  0  0  0  0  0
    0.3882    5.3657   -2.4975 H   0  0  0  0  0  0  0  0  0  0  0  0
   -0.8629    1.9641   -5.6804 H   0  0  0  0  0  0  0  0  0  0  0  0
   -0.0884    0.6698   -4.8851 H   0  0  0  0  0  0  0  0  0  0  0  0
   -2.2881    0.3987   -5.8159 H   0  0  0  0  0  0  0  0  0  0  0  0
   -3.9462    0.6703   -4.0505 H   0  0  0  0  0  0  0  0  0  0  0  0
   -2.8487   -0.0657   -2.9473 H   0  0  0  0  0  0  0  0  0  0  0  0
   -4.6009   -1.2735   -4.8157 H   0  0  0  0  0  0  0  0  0  0  0  0
   -3.0410   -1.7031   -5.3852 H   0  0  0  0  0  0  0  0  0  0  0  0
   -4.4899   -2.1560   -2.8279 H   0  0  0  0  0  0  0  0  0  0  0  0
   -4.1525   -4.2774   -3.1362 H   0  0  0  0  0  0  0  0  0  0  0  0
   -3.4959   -3.9462   -4.7516 H   0  0  0  0  0  0  0  0  0  0  0  0
   -2.4253   -3.5398   -1.1234 H   0  0  0  0  0  0  0  0  0  0  0  0
   -3.0943   -5.0756   -1.5856 H   0  0  0  0  0  0  0  0  0  0  0  0
   -1.3937   -6.1700   -0.8262 H   0  0  0  0  0  0  0  0  0  0  0  0
   -0.6864   -3.5940    0.3880 H   0  0  0  0  0  0  0  0  0  0  0  0
   -1.4443   -5.0256    1.0319 H   0  0  0  0  0  0  0  0  0  0  0  0
    0.8554   -6.0881    0.1478 H   0  0  0  0  0  0  0  0  0  0  0  0
    0.5921   -5.5020    1.7782 H   0  0  0  0  0  0  0  0  0  0  0  0
    2.5454   -4.6556   -0.0748 H   0  0  0  0  0  0  0  0  0  0  0  0
    2.1470   -3.5572    2.4544 H   0  0  0  0  0  0  0  0  0  0  0  0
    1.0845   -2.6993    1.4237 H   0  0  0  0  0  0  0  0  0  0  0  0
    3.1496   -2.2700   -0.9325 H   0  0  0  0  0  0  0  0  0  0  0  0
    4.6751   -1.7752   -0.3052 H   0  0  0  0  0  0  0  0  0  0  0  0
    3.8605    0.1469    0.6486 H   0  0  0  0  0  0  0  0  0  0  0  0
    3.6657   -0.2918   -2.2663 H   0  0  0  0  0  0  0  0  0  0  0  0
    4.4798    0.8896   -1.3074 H   0  0  0  0  0  0  0  0  0  0  0  0
    1.8850    1.6331   -0.7905 H   0  0  0  0  0  0  0  0  0  0  0  0
    3.0253    2.4955   -1.8012 H   0  0  0  0  0  0  0  0  0  0  0  0
    2.2723    0.7697   -3.5555 H   0  0  0  0  0  0  0  0  0  0  0  0
    1.4348    2.5783   -4.4045 H   0  0  0  0  0  0  0  0  0  0  0  0
    1.2201    3.3028   -2.8447 H   0  0  0  0  0  0  0  0  0  0  0  0
    5.1823   -0.3675    3.5613 H   0  0  0  0  0  0  0  0  0  0  0  0
    6.3138   -2.5099    2.5815 H   0  0  0  0  0  0  0  0  0  0  0  0
    5.7887   -1.3112    1.3323 H   0  0  0  0  0  0  0  0  0  0  0  0
    4.9588   -3.5352    0.7707 H   0  0  0  0  0  0  0  0  0  0  0  0
    5.3560   -4.6368    2.6841 H   0  0  0  0  0  0  0  0  0  0  0  0
    3.6462   -4.9000    2.5014 H   0  0  0  0  0  0  0  0  0  0  0  0
    3.2024   -3.7851    4.5542 H   0  0  0  0  0  0  0  0  0  0  0  0
    4.8523   -4.2609    4.8153 H   0  0  0  0  0  0  0  0  0  0  0  0
    5.5938   -2.1592    4.9275 H   0  0  0  0  0  0  0  0  0  0  0  0
    4.0285   -0.6165    5.7838 H   0  0  0  0  0  0  0  0  0  0  0  0
    3.6216   -2.2541    6.3296 H   0  0  0  0  0  0  0  0  0  0  0  0
    1.8900   -2.2320    4.5022 H   0  0  0  0  0  0  0  0  0  0  0  0
    1.5379   -1.7262    6.8060 H   0  0  0  0  0  0  0  0  0  0  0  0
    1.6773    0.0443    6.3772 H   0  0  0  0  0  0  0  0  0  0  0  0
   -0.2193   -2.0959    5.2426 H   0  0  0  0  0  0  0  0  0  0  0  0
   -0.6399   -0.6302    6.2875 H   0  0  0  0  0  0  0  0  0  0  0  0
    0.1259    0.7358    4.5951 H   0  0  0  0  0  0  0  0  0  0  0  0
   -2.0813   -0.1415    4.7840 H   0  0  0  0  0  0  0  0  0  0  0  0
   -1.7520   -1.2888    3.4909 H   0  0  0  0  0  0  0  0  0  0  0  0
   -3.1618   -0.0952    1.5145 H   0  0  0  0  0  0  0  0  0  0  0  0
   -2.0478    1.1511    0.7642 H   0  0  0  0  0  0  0  0  0  0  0  0
   -1.0039   -1.4922    1.6218 H   0  0  0  0  0  0  0  0  0  0  0  0
   -0.4003    0.7117   -0.0748 H   0  0  0  0  0  0  0  0  0  0  0  0
    0.6080   -0.5966    0.4898 H   0  0  0  0  0  0  0  0  0  0  0  0
   -1.5872   -1.3532   -1.2387 H   0  0  0  0  0  0  0  0  0  0  0  0
   -0.6182   -0.2178   -2.0813 H   0  0  0  0  0  0  0  0  0  0  0  0
    0.8089   -2.5469   -1.2560 H   0  0  0  0  0  0  0  0  0  0  0  0
    2.0513   -1.8065   -3.0054 H   0  0  0  0  0  0  0  0  0  0  0  0
    0.5838   -1.2801   -3.8282 H   0  0  0  0  0  0  0  0  0  0  0  0
    1.8521   -3.2040   -4.6708 H   0  0  0  0  0  0  0  0  0  0  0  0
    1.3103   -4.3233   -2.2371 H   0  0  0  0  0  0  0  0  0  0  0  0
    2.0807   -5.0961   -3.5602 H   0  0  0  0  0  0  0  0  0  0  0  0
    0.3937   -6.2564   -4.3610 H   0  0  0  0  0  0  0  0  0  0  0  0
    0.0641   -6.3830   -2.7036 H   0  0  0  0  0  0  0  0  0  0  0  0
   -1.8955   -6.0402   -4.2011 H   0  0  0  0  0  0  0  0  0  0  0  0
   -0.3720   -5.2760   -5.8572 H   0  0  0  0  0  0  0  0  0  0  0  0
   -1.7970   -4.2281   -5.8351 H   0  0  0  0  0  0  0  0  0  0  0  0
    0.0096   -2.6635   -5.8516 H   0  0  0  0  0  0  0  0  0  0  0  0
   -0.5406    4.0820    3.9480 H   0  0  0  0  0  0  0  0  0  0  0  0
   -1.6401    2.2658    5.1452 H   0  0  0  0  0  0  0  0  0  0  0  0
   -3.0045    3.3878    4.6438 H   0  0  0  0  0  0  0  0  0  0  0  0
   -3.4878    1.0454    4.0626 H   0  0  0  0  0  0  0  0  0  0  0  0
   -4.6296    2.6961    3.0548 H   0  0  0  0  0  0  0  0  0  0  0  0
   -4.1427    1.6631    1.7243 H   0  0  0  0  0  0  0  0  0  0  0  0
   -3.1919    3.4178    0.7077 H   0  0  0  0  0  0  0  0  0  0  0  0
   -3.9047    4.4683    1.9149 H   0  0  0  0  0  0  0  0  0  0  0  0
   -1.1326    3.9373    1.4044 H   0  0  0  0  0  0  0  0  0  0  0  0
   -1.5829    5.8258    3.4504 H   0  0  0  0  0  0  0  0  0  0  0  0
   -2.9190    5.9759    2.2672 H   0  0  0  0  0  0  0  0  0  0  0  0
   -0.2006    6.6854    1.8379 H   0  0  0  0  0  0  0  0  0  0  0  0
  1  2  1  0
  2  3  1  0
  3  4  1  0
  4  5  1  0
  5  6  1  0
  6  7  1  0
  7  8  1  0
  8  9  1  0
  9 10  1  0
 10 11  1  0
 11 12  1  0
 12 13  1  0
 13 14  1  0
 14 15  1  0
 15 16  1  0
 16 17  1  0
 17 18  1  0
 18 19  1  0
 19 20  1  0
 20 21  1  0
 21 22  1  0
 22 23  1  0
 23 24  1  0
 24 25  1  0
 25 26  1  0
 26 27  1  0
 27 28  1  0
 28 29  1  0
 29 30  1  0
 30 31  1  0
 31 32  1  0
 26 33  1  0
 33 34  1  0
 34 35  1  0
 35 36  1  0
 36 37  1  0
 37 38  1  0
 38 39  1  0
 39 40  1  0
 40 41  1  0
 41 42  1  0
 42 43  1  0
 43 44  1  0
 44 45  1  0
 45 46  1  0
 46 47  1  0
 47 48  1  0
 48 49  1  0
 49 50  1  0
 50 51  1  0
 51 52  1  0
 52 53  1  0
 53 54  1  0
 54 55  1  0
 55 56  1  0
 56 57  1  0
 57 58  1  0
 58 59  1  0
 46 60  1  0
 60 61  1  0
 61 62  1  0
 62 63  1  0
 63 64  1  0
 64 65  1  0
 65 66  1  0
 66 67  1  0
 67 68  1  0
 68  1  1  0
 10  5  1  0
 32 12  1  0
 39 34  1  0
 63 46  1  0
 12  8  1  0
 56 19  1  0
 66 61  1  0
 59 19  1  0
 36 26  1  0
 58 53  1  0
  1 69  1  0
  1 70  1  0
  2 71  1  0
  2 72  1  0
  3 73  1  0
  4 74  1  0
  4 75  1  0
  5 76  1  0
  6 77  1  0
  6 78  1  0
  7 79  1  0
  7 80  1  0
  8 81  1  0
  9 82  1  0
  9 83  1  0
 10 84  1  0
 13 85  1  0
 13 86  1  0
 14 87  1  0
 15 88  1  0
 15 89  1  0
 16 90  1  0
 16 91  1  0
 17 92  1  0
 18 93  1  0
 18 94  1  0
 20 95  1  0
 20 96  1  0
 21 97  1  0
 22 98  1  0
 22 99  1  0
 23100  1  0
 23101  1  0
 24102  1  0
 25103  1  0
 25104  1  0
 27105  1  0
 27106  1  0
 28107  1  0
 29108  1  0
 29109  1  0
 30110  1  0
 30111  1  0
 31112  1  0
 32113  1  0
 32114  1  0
 34115  1  0
 35116  1  0
 35117  1  0
 36118  1  0
 37119  1  0
 37120  1  0
 38121  1  0
 38122  1  0
 39123  1  0
 40124  1  0
 40125  1  0
 41126  1  0
 42127  1  0
 42128  1  0
 43129  1  0
 43130  1  0
 44131  1  0
 45132  1  0
 45133  1  0
 47134  1  0
 47135  1  0
 48136  1  0
 49137  1  0
 49138  1  0
 50139  1  0
 50140  1  0
 51141  1  0
 52142  1  0
 52143  1  0
 53144  1  0
 54145  1  0
 54146  1  0
 55147  1  0
 55148  1  0
 56149  1  0
 57150  1  0
 57151  1  0
 58152  1  0
 61153  1  0
 62154  1  0
 62155  1  0
 63156  1  0
 64157  1  0
 64158  1  0
 65159  1  0
 65160  1  0
 66161  1  0
 67162  1  0
 67163  1  0
 68164  1  0
M  END
