
     RDKit          3D

128134  0  0  0  0  0  0  0  0999 V2000
   -2.5512   -7.9328    0.7616 O   0  0  0  0  0  0  0  0  0  0  0  0
   -2.5468   -6.6801    0.8506 C   0  0  0  0  0  0  0  0  0  0  0  0
   -4.0444   -6.6212    0.7895 C   0  0  0  0  0  0  0  0  0  0  0  0
   -4.5402   -5.4134    0.2060 N   0  0  0  0  0  0  0  0  0  0  0  0
   -3.8433   -4.2219    0.5882 C   0  0  0  0  0  0  0  0  0  0  0  0
   -4.3697   -3.5882    1.8549 C   0  0  0  0  0  0  0  0  0  0  0  0
   -3.8469   -2.2519    1.9707 N   0  0  0  0  0  0  0  0  0  0  0  0
   -4.6586   -1.3708    2.7646 C   0  0  0  0  0  0  0  0  0  0  0  0
   -3.7820   -0.2115    3.1590 C   0  0  0  0  0  0  0  0  0  0  0  0
   -3.1611   -0.2729    2.0543 O   0  0  0  0  0  0  0  0  0  0  0  0
   -3.3477    1.1759    3.5527 C   0  0  0  0  0  0  0  0  0  0  0  0
   -2.5938    1.2576    4.6637 O   0  0  0  0  0  0  0  0  0  0  0  0
   -1.7340    2.2150    4.2766 C   0  0  0  0  0  0  0  0  0  0  0  0
   -2.7895    3.1408    4.2461 C   0  0  0  0  0  0  0  0  0  0  0  0
   -3.5518    2.5627    3.2054 C   0  0  0  0  0  0  0  0  0  0  0  0
   -4.1267    3.2114    1.9449 C   0  0  0  0  0  0  0  0  0  0  0  0
   -3.1593    3.3780    0.9121 N   0  0  0  0  0  0  0  0  0  0  0  0
   -3.0532    4.7210    0.4122 C   0  0  0  0  0  0  0  0  0  0  0  0
   -4.1821    4.9077   -0.5950 C   0  0  0  0  0  0  0  0  0  0  0  0
   -4.4804    3.5999   -1.1744 N   0  0  0  0  0  0  0  0  0  0  0  0
   -3.7119    3.4493   -2.4108 C   0  0  0  0  0  0  0  0  0  0  0  0
   -3.3540    1.9837   -2.6335 C   0  0  0  0  0  0  0  0  0  0  0  0
   -3.7998    0.9327   -3.4716 C   0  0  0  0  0  0  0  0  0  0  0  0
   -2.5990    0.6347   -4.1106 C   0  0  0  0  0  0  0  0  0  0  0  0
   -1.4376    0.6981   -5.0414 C   0  0  0  0  0  0  0  0  0  0  0  0
   -0.6312    1.8757   -4.8508 N   0  0  0  0  0  0  0  0  0  0  0  0
    0.7372    1.6309   -5.3011 C   0  0  0  0  0  0  0  0  0  0  0  0
    1.6139    2.8100   -4.9847 C   0  0  0  0  0  0  0  0  0  0  0  0
    2.1024    2.7714   -3.6147 N   0  0  0  0  0  0  0  0  0  0  0  0
    2.9195    1.5953   -3.4804 C   0  0  0  0  0  0  0  0  0  0  0  0
    4.0425    1.7827   -2.5100 C   0  0  0  0  0  0  0  0  0  0  0  0
    4.9297    2.2410   -1.5398 C   0  0  0  0  0  0  0  0  0  0  0  0
    4.3582    1.6784   -0.3772 C   0  0  0  0  0  0  0  0  0  0  0  0
    3.8185    2.3048    0.9042 C   0  0  0  0  0  0  0  0  0  0  0  0
    2.5940    3.0241    0.6776 N   0  0  0  0  0  0  0  0  0  0  0  0
    2.2371    3.7648    1.8437 C   0  0  0  0  0  0  0  0  0  0  0  0
    1.6228    2.9647    2.9434 C   0  0  0  0  0  0  0  0  0  0  0  0
    0.1641    2.9061    2.8644 N   0  0  0  0  0  0  0  0  0  0  0  0
   -0.2294    2.2262    4.0950 C   0  0  0  0  0  0  0  0  0  0  0  0
    4.2126    0.3761   -0.9337 C   0  0  0  0  0  0  0  0  0  0  0  0
    3.8370    0.5142   -2.1931 O   0  0  0  0  0  0  0  0  0  0  0  0
    4.2390   -1.0606   -1.2651 C   0  0  0  0  0  0  0  0  0  0  0  0
    4.5193   -0.8459   -2.4612 O   0  0  0  0  0  0  0  0  0  0  0  0
    3.9442   -2.5154   -1.3436 C   0  0  0  0  0  0  0  0  0  0  0  0
    3.1317   -2.8378   -2.5155 N   0  0  0  0  0  0  0  0  0  0  0  0
    2.9424   -4.2705   -2.5391 C   0  0  0  0  0  0  0  0  0  0  0  0
    1.5515   -4.6837   -2.9261 C   0  0  0  0  0  0  0  0  0  0  0  0
    0.6407   -4.7941   -1.8274 N   0  0  0  0  0  0  0  0  0  0  0  0
    0.9817   -5.9214   -1.0038 C   0  0  0  0  0  0  0  0  0  0  0  0
   -0.0404   -6.1777    0.0627 C   0  0  0  0  0  0  0  0  0  0  0  0
    0.5785   -5.0688    0.6285 C   0  0  0  0  0  0  0  0  0  0  0  0
    0.0582   -5.0147    1.9155 C   0  0  0  0  0  0  0  0  0  0  0  0
   -0.0075   -3.5325    1.7225 C   0  0  0  0  0  0  0  0  0  0  0  0
    1.0616   -2.8839    2.4374 N   0  0  0  0  0  0  0  0  0  0  0  0
    0.6664   -1.4740    2.4682 C   0  0  0  0  0  0  0  0  0  0  0  0
    1.0841   -0.7758    1.2086 C   0  0  0  0  0  0  0  0  0  0  0  0
    0.0707   -0.7041    0.1969 N   0  0  0  0  0  0  0  0  0  0  0  0
    0.0539    0.5408   -0.5163 C   0  0  0  0  0  0  0  0  0  0  0  0
   -1.2000    0.6319   -1.2825 C   0  0  0  0  0  0  0  0  0  0  0  0
   -1.0065   -0.2956   -2.0896 O   0  0  0  0  0  0  0  0  0  0  0  0
   -2.2835    1.2172   -2.0933 C   0  0  0  0  0  0  0  0  0  0  0  0
   -1.7183    0.6062   -3.1234 O   0  0  0  0  0  0  0  0  0  0  0  0
   -0.3530   -6.2582    2.1045 O   0  0  0  0  0  0  0  0  0  0  0  0
   -1.0678   -6.4880    0.9840 C   0  0  0  0  0  0  0  0  0  0  0  0
   -4.3816   -7.4609    0.1318 H   0  0  0  0  0  0  0  0  0  0  0  0
   -4.4336   -6.7127    1.8242 H   0  0  0  0  0  0  0  0  0  0  0  0
   -5.5479   -5.3414    0.4272 H   0  0  0  0  0  0  0  0  0  0  0  0
   -2.7738   -4.4646    0.6331 H   0  0  0  0  0  0  0  0  0  0  0  0
   -3.9512   -3.4642   -0.2291 H   0  0  0  0  0  0  0  0  0  0  0  0
   -5.4674   -3.5653    1.8169 H   0  0  0  0  0  0  0  0  0  0  0  0
   -4.0034   -4.2226    2.6956 H   0  0  0  0  0  0  0  0  0  0  0  0
   -3.6999   -1.9081    0.9847 H   0  0  0  0  0  0  0  0  0  0  0  0
   -5.0192   -1.9172    3.6481 H   0  0  0  0  0  0  0  0  0  0  0  0
   -5.4747   -0.9961    2.1081 H   0  0  0  0  0  0  0  0  0  0  0  0
   -2.9306    4.0797    4.7920 H   0  0  0  0  0  0  0  0  0  0  0  0
   -4.9448    2.5850    1.5069 H   0  0  0  0  0  0  0  0  0  0  0  0
   -4.7005    4.1338    2.1941 H   0  0  0  0  0  0  0  0  0  0  0  0
   -2.2648    2.8865    1.0436 H   0  0  0  0  0  0  0  0  0  0  0  0
   -2.0623    4.8751   -0.0377 H   0  0  0  0  0  0  0  0  0  0  0  0
   -3.1688    5.4328    1.2682 H   0  0  0  0  0  0  0  0  0  0  0  0
   -3.8075    5.6169   -1.3510 H   0  0  0  0  0  0  0  0  0  0  0  0
   -5.0818    5.3587   -0.1335 H   0  0  0  0  0  0  0  0  0  0  0  0
   -5.5171    3.5582   -1.3601 H   0  0  0  0  0  0  0  0  0  0  0  0
   -4.3821    3.8381   -3.1899 H   0  0  0  0  0  0  0  0  0  0  0  0
   -2.8480    4.1260   -2.4560 H   0  0  0  0  0  0  0  0  0  0  0  0
   -4.7916    0.5862   -3.7263 H   0  0  0  0  0  0  0  0  0  0  0  0
   -1.8482    0.7444   -6.0604 H   0  0  0  0  0  0  0  0  0  0  0  0
   -0.8831   -0.2476   -4.9660 H   0  0  0  0  0  0  0  0  0  0  0  0
   -0.9892    2.6486   -5.4722 H   0  0  0  0  0  0  0  0  0  0  0  0
    1.0597    0.6922   -4.8233 H   0  0  0  0  0  0  0  0  0  0  0  0
    0.7750    1.4397   -6.4034 H   0  0  0  0  0  0  0  0  0  0  0  0
    2.5004    2.8649   -5.6431 H   0  0  0  0  0  0  0  0  0  0  0  0
    1.0341    3.7408   -5.1331 H   0  0  0  0  0  0  0  0  0  0  0  0
    2.5849    3.6592   -3.4000 H   0  0  0  0  0  0  0  0  0  0  0  0
    3.3408    1.2633   -4.4629 H   0  0  0  0  0  0  0  0  0  0  0  0
    2.2329    0.7723   -3.1581 H   0  0  0  0  0  0  0  0  0  0  0  0
    5.8238    2.8520   -1.6804 H   0  0  0  0  0  0  0  0  0  0  0  0
    3.6224    1.5742    1.6897 H   0  0  0  0  0  0  0  0  0  0  0  0
    4.5882    2.9665    1.3801 H   0  0  0  0  0  0  0  0  0  0  0  0
    2.7944    3.7224   -0.0867 H   0  0  0  0  0  0  0  0  0  0  0  0
    3.1625    4.2438    2.2515 H   0  0  0  0  0  0  0  0  0  0  0  0
    1.5459    4.6190    1.6294 H   0  0  0  0  0  0  0  0  0  0  0  0
    1.8403    3.4831    3.9108 H   0  0  0  0  0  0  0  0  0  0  0  0
    2.0016    1.9370    3.0266 H   0  0  0  0  0  0  0  0  0  0  0  0
   -0.2676    3.8396    2.7636 H   0  0  0  0  0  0  0  0  0  0  0  0
    0.2072    1.2385    3.9766 H   0  0  0  0  0  0  0  0  0  0  0  0
    0.2759    2.6740    4.9888 H   0  0  0  0  0  0  0  0  0  0  0  0
    4.8923   -3.0766   -1.3938 H   0  0  0  0  0  0  0  0  0  0  0  0
    3.3609   -2.8373   -0.4697 H   0  0  0  0  0  0  0  0  0  0  0  0
    3.6952   -2.4905   -3.3364 H   0  0  0  0  0  0  0  0  0  0  0  0
    3.6207   -4.6585   -3.3414 H   0  0  0  0  0  0  0  0  0  0  0  0
    3.3015   -4.7362   -1.6024 H   0  0  0  0  0  0  0  0  0  0  0  0
    1.5479   -5.6153   -3.5331 H   0  0  0  0  0  0  0  0  0  0  0  0
    1.1579   -3.8893   -3.6095 H   0  0  0  0  0  0  0  0  0  0  0  0
   -0.3237   -4.8422   -2.1981 H   0  0  0  0  0  0  0  0  0  0  0  0
    1.9261   -5.7145   -0.4623 H   0  0  0  0  0  0  0  0  0  0  0  0
    1.0260   -6.8522   -1.6110 H   0  0  0  0  0  0  0  0  0  0  0  0
    1.1309   -4.2717    0.1891 H   0  0  0  0  0  0  0  0  0  0  0  0
   -0.0880   -3.2431    0.6665 H   0  0  0  0  0  0  0  0  0  0  0  0
   -0.9446   -3.1345    2.1952 H   0  0  0  0  0  0  0  0  0  0  0  0
    1.9975   -3.0137    2.0174 H   0  0  0  0  0  0  0  0  0  0  0  0
    1.1751   -1.0186    3.3373 H   0  0  0  0  0  0  0  0  0  0  0  0
   -0.4197   -1.4429    2.6617 H   0  0  0  0  0  0  0  0  0  0  0  0
    1.9185   -1.3886    0.7852 H   0  0  0  0  0  0  0  0  0  0  0  0
    1.5115    0.2116    1.4316 H   0  0  0  0  0  0  0  0  0  0  0  0
   -0.8710   -0.9976    0.4901 H   0  0  0  0  0  0  0  0  0  0  0  0
    0.0994    1.3501    0.2259 H   0  0  0  0  0  0  0  0  0  0  0  0
    0.9632    0.6054   -1.1305 H   0  0  0  0  0  0  0  0  0  0  0  0
  1  2  2  0
  2  3  1  0
  3  4  1  0
  4  5  1  0
  5  6  1  0
  6  7  1  0
  7  8  1  0
  8  9  1  0
  9 10  2  0
  9 11  1  0
 11 12  1  0
 12 13  1  0
 13 14  2  0
 14 15  1  0
 15 16  1  0
 16 17  1  0
 17 18  1  0
 18 19  1  0
 19 20  1  0
 20 21  1  0
 21 22  1  0
 22 23  1  0
 23 24  2  0
 24 25  1  0
 25 26  1  0
 26 27  1  0
 27 28  1  0
 28 29  1  0
 29 30  1  0
 30 31  1  0
 31 32  2  0
 32 33  1  0
 33 34  1  0
 34 35  1  0
 35 36  1  0
 36 37  1  0
 37 38  1  0
 38 39  1  0
 33 40  2  0
 40 41  1  0
 40 42  1  0
 42 43  2  0
 42 44  1  0
 44 45  1  0
 45 46  1  0
 46 47  1  0
 47 48  1  0
 48 49  1  0
 49 50  1  0
 50 51  1  0
 51 52  2  0
 52 53  1  0
 53 54  1  0
 54 55  1  0
 55 56  1  0
 56 57  1  0
 57 58  1  0
 58 59  1  0
 59 60  2  0
 59 61  1  0
 61 62  1  0
 52 63  1  0
 63 64  1  0
 64  2  1  0
 15 11  2  0
 61 22  2  0
 39 13  1  0
 64 50  2  0
 62 24  1  0
 41 31  1  0
  3 65  1  0
  3 66  1  0
  4 67  1  0
  5 68  1  0
  5 69  1  0
  6 70  1  0
  6 71  1  0
  7 72  1  0
  8 73  1  0
  8 74  1  0
 14 75  1  0
 16 76  1  0
 16 77  1  0
 17 78  1  0
 18 79  1  0
 18 80  1  0
 19 81  1  0
 19 82  1  0
 20 83  1  0
 21 84  1  0
 21 85  1  0
 23 86  1  0
 25 87  1  0
 25 88  1  0
 26 89  1  0
 27 90  1  0
 27 91  1  0
 28 92  1  0
 28 93  1  0
 29 94  1  0
 30 95  1  0
 30 96  1  0
 32 97  1  0
 34 98  1  0
 34 99  1  0
 35100  1  0
 36101  1  0
 36102  1  0
 37103  1  0
 37104  1  0
 38105  1  0
 39106  1  0
 39107  1  0
 44108  1  0
 44109  1  0
 45110  1  0
 46111  1  0
 46112  1  0
 47113  1  0
 47114  1  0
 48115  1  0
 49116  1  0
 49117  1  0
 51118  1  0
 53119  1  0
 53120  1  0
 54121  1  0
 55122  1  0
 55123  1  0
 56124  1  0
 56125  1  0
 57126  1  0
 58127  1  0
 58128  1  0
M  END
