
     RDKit          3D

144150  0  0  0  0  0  0  0  0999 V2000
   -2.2493    2.7716    0.5777 C   0  0  0  0  0  0  0  0  0  0  0  0
   -0.9956    2.6360    1.1761 C   0  0  0  0  0  0  0  0  0  0  0  0
   -0.7227    3.6869    2.0980 C   0  0  0  0  0  0  0  0  0  0  0  0
    0.1957    4.7885    1.8646 O   0  0  0  0  0  0  0  0  0  0  0  0
    1.0515    5.9018    1.5581 C   0  0  0  0  0  0  0  0  0  0  0  0
    2.2969    5.4678    0.9770 N   0  0  0  0  0  0  0  0  0  0  0  0
    3.2013    4.9043    1.9419 C   0  0  0  0  0  0  0  0  0  0  0  0
    4.6316    5.0167    1.4325 C   0  0  0  0  0  0  0  0  0  0  0  0
    5.5664    4.5394    2.4350 N   0  0  0  0  0  0  0  0  0  0  0  0
    6.1595    3.2984    2.0190 C   0  0  0  0  0  0  0  0  0  0  0  0
    5.4529    2.1543    2.5274 O   0  0  0  0  0  0  0  0  0  0  0  0
    4.6624    1.0375    2.9996 C   0  0  0  0  0  0  0  0  0  0  0  0
    3.2985    0.9779    3.4061 C   0  0  0  0  0  0  0  0  0  0  0  0
    2.4220    0.5674    2.4002 C   0  0  0  0  0  0  0  0  0  0  0  0
    3.1140    0.2463    1.1956 C   0  0  0  0  0  0  0  0  0  0  0  0
    3.1001    1.0712   -0.0065 O   0  0  0  0  0  0  0  0  0  0  0  0
    3.1479    1.9497   -1.1440 C   0  0  0  0  0  0  0  0  0  0  0  0
    4.0913    1.4376   -2.1367 N   0  0  0  0  0  0  0  0  0  0  0  0
    3.6993    0.1517   -2.6529 C   0  0  0  0  0  0  0  0  0  0  0  0
    4.0278    0.1589   -4.1405 C   0  0  0  0  0  0  0  0  0  0  0  0
    2.9866    0.8706   -4.8342 N   0  0  0  0  0  0  0  0  0  0  0  0
    2.8086    0.3993   -6.2061 C   0  0  0  0  0  0  0  0  0  0  0  0
    1.2151    0.9436   -6.7728 S   0  0  0  0  0  0  0  0  0  0  0  0
    0.0018    1.3374   -5.4369 C   0  0  0  0  0  0  0  0  0  0  0  0
   -0.4636    2.6716   -5.3128 C   0  0  0  0  0  0  0  0  0  0  0  0
   -1.4796    2.8243   -4.3181 C   0  0  0  0  0  0  0  0  0  0  0  0
   -0.8046    2.3501   -3.1558 C   0  0  0  0  0  0  0  0  0  0  0  0
   -0.4222    1.0086   -3.2323 C   0  0  0  0  0  0  0  0  0  0  0  0
   -0.7102    0.4481   -4.5104 C   0  0  0  0  0  0  0  0  0  0  0  0
   -1.8065   -0.4642   -4.7930 O   0  0  0  0  0  0  0  0  0  0  0  0
   -2.9418   -1.3085   -5.0423 C   0  0  0  0  0  0  0  0  0  0  0  0
   -2.6665   -2.6475   -4.5950 N   0  0  0  0  0  0  0  0  0  0  0  0
   -2.0565   -2.7298   -3.2992 C   0  0  0  0  0  0  0  0  0  0  0  0
   -3.0559   -2.6424   -2.1636 C   0  0  0  0  0  0  0  0  0  0  0  0
   -2.8549   -3.7093   -1.1845 N   0  0  0  0  0  0  0  0  0  0  0  0
   -4.1569   -4.2461   -0.8976 C   0  0  0  0  0  0  0  0  0  0  0  0
   -4.1770   -5.0182    0.3119 O   0  0  0  0  0  0  0  0  0  0  0  0
   -4.1505   -5.8063    1.5391 C   0  0  0  0  0  0  0  0  0  0  0  0
   -5.2669   -5.9324    2.4151 C   0  0  0  0  0  0  0  0  0  0  0  0
   -5.1119   -5.1502    3.5627 C   0  0  0  0  0  0  0  0  0  0  0  0
   -3.8535   -4.4870    3.6473 C   0  0  0  0  0  0  0  0  0  0  0  0
   -2.9357   -5.5812    3.6015 C   0  0  0  0  0  0  0  0  0  0  0  0
   -3.0155   -6.2644    2.3586 C   0  0  0  0  0  0  0  0  0  0  0  0
   -1.9188   -7.7297    2.0865 S   0  0  0  0  0  0  0  0  0  0  0  0
   -0.4759   -7.4634    1.0987 C   0  0  0  0  0  0  0  0  0  0  0  0
    0.6973   -7.2503    1.9403 N   0  0  0  0  0  0  0  0  0  0  0  0
    1.1961   -5.8989    1.8567 C   0  0  0  0  0  0  0  0  0  0  0  0
    2.7173   -5.8990    1.8408 C   0  0  0  0  0  0  0  0  0  0  0  0
    3.2545   -4.5971    2.2246 N   0  0  0  0  0  0  0  0  0  0  0  0
    3.0571   -3.6461    1.1617 C   0  0  0  0  0  0  0  0  0  0  0  0
    4.3663   -2.4772    0.9384 S   0  0  0  0  0  0  0  0  0  0  0  0
    4.0644   -0.7890    1.6306 C   0  0  0  0  0  0  0  0  0  0  0  0
    4.9117   -0.3331    2.6775 C   0  0  0  0  0  0  0  0  0  0  0  0
   -3.4829   -3.1226    3.3378 O   0  0  0  0  0  0  0  0  0  0  0  0
   -3.1790   -1.7660    2.9690 C   0  0  0  0  0  0  0  0  0  0  0  0
   -1.7779   -1.4988    3.1102 N   0  0  0  0  0  0  0  0  0  0  0  0
   -1.4497   -0.3756    3.9286 C   0  0  0  0  0  0  0  0  0  0  0  0
   -2.0303   -0.4028    5.3072 C   0  0  0  0  0  0  0  0  0  0  0  0
   -2.4684    0.9508    5.6403 N   0  0  0  0  0  0  0  0  0  0  0  0
   -1.4034    1.9145    5.5156 C   0  0  0  0  0  0  0  0  0  0  0  0
   -1.9054    3.4911    4.8642 S   0  0  0  0  0  0  0  0  0  0  0  0
   -1.8614    3.6322    3.0239 C   0  0  0  0  0  0  0  0  0  0  0  0
   -3.0867    3.8147    2.3326 C   0  0  0  0  0  0  0  0  0  0  0  0
   -2.9214    3.9796    0.9216 C   0  0  0  0  0  0  0  0  0  0  0  0
   -2.9800    5.2588    0.2486 O   0  0  0  0  0  0  0  0  0  0  0  0
   -2.9665    6.4937   -0.4893 C   0  0  0  0  0  0  0  0  0  0  0  0
   -3.1327    6.2658   -1.8991 N   0  0  0  0  0  0  0  0  0  0  0  0
   -3.9009    5.0504   -2.1372 C   0  0  0  0  0  0  0  0  0  0  0  0
   -4.4641    4.9951   -3.5362 C   0  0  0  0  0  0  0  0  0  0  0  0
   -4.9656    3.6521   -3.7488 N   0  0  0  0  0  0  0  0  0  0  0  0
   -4.3130    2.9668   -4.8284 C   0  0  0  0  0  0  0  0  0  0  0  0
   -2.8912    2.9353   -4.6138 O   0  0  0  0  0  0  0  0  0  0  0  0
   -2.5099    2.1001   -0.2464 H   0  0  0  0  0  0  0  0  0  0  0  0
   -0.3510    1.7929    0.9227 H   0  0  0  0  0  0  0  0  0  0  0  0
    1.3255    6.3988    2.5232 H   0  0  0  0  0  0  0  0  0  0  0  0
    0.5310    6.6621    0.9634 H   0  0  0  0  0  0  0  0  0  0  0  0
    2.1090    4.8161    0.1721 H   0  0  0  0  0  0  0  0  0  0  0  0
    3.1512    5.4923    2.8692 H   0  0  0  0  0  0  0  0  0  0  0  0
    2.9583    3.8324    2.1283 H   0  0  0  0  0  0  0  0  0  0  0  0
    4.7932    4.4570    0.4974 H   0  0  0  0  0  0  0  0  0  0  0  0
    4.7893    6.0942    1.2066 H   0  0  0  0  0  0  0  0  0  0  0  0
    5.0572    4.4085    3.3319 H   0  0  0  0  0  0  0  0  0  0  0  0
    6.1611    3.3054    0.9089 H   0  0  0  0  0  0  0  0  0  0  0  0
    7.1898    3.2785    2.4476 H   0  0  0  0  0  0  0  0  0  0  0  0
    2.8771    1.4059    4.3209 H   0  0  0  0  0  0  0  0  0  0  0  0
    1.3522    0.5274    2.5879 H   0  0  0  0  0  0  0  0  0  0  0  0
    3.5181    2.9495   -0.8795 H   0  0  0  0  0  0  0  0  0  0  0  0
    2.1629    1.9355   -1.6313 H   0  0  0  0  0  0  0  0  0  0  0  0
    4.1417    2.1558   -2.8816 H   0  0  0  0  0  0  0  0  0  0  0  0
    2.6352   -0.0869   -2.4638 H   0  0  0  0  0  0  0  0  0  0  0  0
    4.3592   -0.6043   -2.1627 H   0  0  0  0  0  0  0  0  0  0  0  0
    4.9760    0.7417   -4.2501 H   0  0  0  0  0  0  0  0  0  0  0  0
    4.1900   -0.8585   -4.5308 H   0  0  0  0  0  0  0  0  0  0  0  0
    3.1541    1.9043   -4.8220 H   0  0  0  0  0  0  0  0  0  0  0  0
    3.6010    0.8605   -6.8243 H   0  0  0  0  0  0  0  0  0  0  0  0
    2.9140   -0.7093   -6.1783 H   0  0  0  0  0  0  0  0  0  0  0  0
   -0.1212    3.5361   -5.8994 H   0  0  0  0  0  0  0  0  0  0  0  0
   -0.7587    2.8551   -2.1859 H   0  0  0  0  0  0  0  0  0  0  0  0
    0.0389    0.5106   -2.3794 H   0  0  0  0  0  0  0  0  0  0  0  0
   -3.1007   -1.3912   -6.1486 H   0  0  0  0  0  0  0  0  0  0  0  0
   -3.8739   -0.8803   -4.6508 H   0  0  0  0  0  0  0  0  0  0  0  0
   -1.9943   -3.0687   -5.2889 H   0  0  0  0  0  0  0  0  0  0  0  0
   -1.6065   -3.7527   -3.2243 H   0  0  0  0  0  0  0  0  0  0  0  0
   -1.2256   -2.0263   -3.1510 H   0  0  0  0  0  0  0  0  0  0  0  0
   -4.0648   -2.7146   -2.6438 H   0  0  0  0  0  0  0  0  0  0  0  0
   -3.0191   -1.6414   -1.6989 H   0  0  0  0  0  0  0  0  0  0  0  0
   -2.5049   -3.2400   -0.3216 H   0  0  0  0  0  0  0  0  0  0  0  0
   -4.8507   -3.3989   -0.8336 H   0  0  0  0  0  0  0  0  0  0  0  0
   -4.3997   -4.9568   -1.7278 H   0  0  0  0  0  0  0  0  0  0  0  0
   -6.2113   -6.4140    2.2701 H   0  0  0  0  0  0  0  0  0  0  0  0
   -5.9729   -4.9836    4.2181 H   0  0  0  0  0  0  0  0  0  0  0  0
   -2.2798   -5.8056    4.4503 H   0  0  0  0  0  0  0  0  0  0  0  0
   -0.3334   -8.2729    0.3696 H   0  0  0  0  0  0  0  0  0  0  0  0
   -0.5999   -6.5177    0.5128 H   0  0  0  0  0  0  0  0  0  0  0  0
    1.4402   -7.9550    1.7752 H   0  0  0  0  0  0  0  0  0  0  0  0
    0.8922   -5.3867    2.8045 H   0  0  0  0  0  0  0  0  0  0  0  0
    0.7929   -5.3345    1.0000 H   0  0  0  0  0  0  0  0  0  0  0  0
    3.1021   -6.7087    2.4895 H   0  0  0  0  0  0  0  0  0  0  0  0
    3.0234   -6.0433    0.7755 H   0  0  0  0  0  0  0  0  0  0  0  0
    2.7772   -4.2766    3.1083 H   0  0  0  0  0  0  0  0  0  0  0  0
    2.0975   -3.1147    1.3860 H   0  0  0  0  0  0  0  0  0  0  0  0
    2.8841   -4.2209    0.2336 H   0  0  0  0  0  0  0  0  0  0  0  0
    5.7081   -0.8987    3.1735 H   0  0  0  0  0  0  0  0  0  0  0  0
   -3.7563   -1.0834    3.5986 H   0  0  0  0  0  0  0  0  0  0  0  0
   -3.4327   -1.5792    1.8980 H   0  0  0  0  0  0  0  0  0  0  0  0
   -1.2132   -2.3492    3.2770 H   0  0  0  0  0  0  0  0  0  0  0  0
   -1.7570    0.5345    3.3974 H   0  0  0  0  0  0  0  0  0  0  0  0
   -0.3360   -0.3762    4.0436 H   0  0  0  0  0  0  0  0  0  0  0  0
   -1.2824   -0.6847    6.0834 H   0  0  0  0  0  0  0  0  0  0  0  0
   -2.8838   -1.0793    5.4369 H   0  0  0  0  0  0  0  0  0  0  0  0
   -2.9415    0.9988    6.5625 H   0  0  0  0  0  0  0  0  0  0  0  0
   -0.6358    1.4809    4.8252 H   0  0  0  0  0  0  0  0  0  0  0  0
   -0.8622    2.0912    6.4700 H   0  0  0  0  0  0  0  0  0  0  0  0
   -4.0883    3.8528    2.7844 H   0  0  0  0  0  0  0  0  0  0  0  0
   -3.8546    7.0977   -0.1735 H   0  0  0  0  0  0  0  0  0  0  0  0
   -2.0152    7.0238   -0.3448 H   0  0  0  0  0  0  0  0  0  0  0  0
   -2.2018    6.1812   -2.3443 H   0  0  0  0  0  0  0  0  0  0  0  0
   -4.7056    4.9867   -1.3886 H   0  0  0  0  0  0  0  0  0  0  0  0
   -3.1712    4.2131   -2.0603 H   0  0  0  0  0  0  0  0  0  0  0  0
   -5.2818    5.7548   -3.5987 H   0  0  0  0  0  0  0  0  0  0  0  0
   -3.6527    5.2676   -4.2419 H   0  0  0  0  0  0  0  0  0  0  0  0
   -4.8995    3.0531   -2.8967 H   0  0  0  0  0  0  0  0  0  0  0  0
   -4.7367    1.9572   -4.8989 H   0  0  0  0  0  0  0  0  0  0  0  0
   -4.5284    3.5296   -5.7464 H   0  0  0  0  0  0  0  0  0  0  0  0
  1  2  2  0
  2  3  1  0
  3  4  1  0
  4  5  1  0
  5  6  1  0
  6  7  1  0
  7  8  1  0
  8  9  1  0
  9 10  1  0
 10 11  1  0
 11 12  1  0
 12 13  2  0
 13 14  1  0
 14 15  2  0
 15 16  1  0
 16 17  1  0
 17 18  1  0
 18 19  1  0
 19 20  1  0
 20 21  1  0
 21 22  1  0
 22 23  1  0
 23 24  1  0
 24 25  2  0
 25 26  1  0
 26 27  2  0
 27 28  1  0
 28 29  2  0
 29 30  1  0
 30 31  1  0
 31 32  1  0
 32 33  1  0
 33 34  1  0
 34 35  1  0
 35 36  1  0
 36 37  1  0
 37 38  1  0
 38 39  2  0
 39 40  1  0
 40 41  2  0
 41 42  1  0
 42 43  2  0
 43 44  1  0
 44 45  1  0
 45 46  1  0
 46 47  1  0
 47 48  1  0
 48 49  1  0
 49 50  1  0
 50 51  1  0
 51 52  1  0
 52 53  2  0
 41 54  1  0
 54 55  1  0
 55 56  1  0
 56 57  1  0
 57 58  1  0
 58 59  1  0
 59 60  1  0
 60 61  1  0
 61 62  1  0
 62 63  1  0
 63 64  2  0
 64 65  1  0
 65 66  1  0
 66 67  1  0
 67 68  1  0
 68 69  1  0
 69 70  1  0
 70 71  1  0
 71 72  1  0
 64  1  1  0
 62  3  2  0
 53 12  1  0
 52 15  1  0
 29 24  1  0
 43 38  1  0
 72 26  1  0
  1 73  1  0
  2 74  1  0
  5 75  1  0
  5 76  1  0
  6 77  1  0
  7 78  1  0
  7 79  1  0
  8 80  1  0
  8 81  1  0
  9 82  1  0
 10 83  1  0
 10 84  1  0
 13 85  1  0
 14 86  1  0
 17 87  1  0
 17 88  1  0
 18 89  1  0
 19 90  1  0
 19 91  1  0
 20 92  1  0
 20 93  1  0
 21 94  1  0
 22 95  1  0
 22 96  1  0
 25 97  1  0
 27 98  1  0
 28 99  1  0
 31100  1  0
 31101  1  0
 32102  1  0
 33103  1  0
 33104  1  0
 34105  1  0
 34106  1  0
 35107  1  0
 36108  1  0
 36109  1  0
 39110  1  0
 40111  1  0
 42112  1  0
 45113  1  0
 45114  1  0
 46115  1  0
 47116  1  0
 47117  1  0
 48118  1  0
 48119  1  0
 49120  1  0
 50121  1  0
 50122  1  0
 53123  1  0
 55124  1  0
 55125  1  0
 56126  1  0
 57127  1  0
 57128  1  0
 58129  1  0
 58130  1  0
 59131  1  0
 60132  1  0
 60133  1  0
 63134  1  0
 66135  1  0
 66136  1  0
 67137  1  0
 68138  1  0
 68139  1  0
 69140  1  0
 69141  1  0
 70142  1  0
 71143  1  0
 71144  1  0
M  END
