
     RDKit          3D

156162  0  0  0  0  0  0  0  0999 V2000
    0.7019    2.2353   -6.0906 C   0  0  0  0  0  0  0  0  0  0  0  0
    0.6550    3.5663   -6.5192 C   0  0  0  0  0  0  0  0  0  0  0  0
    0.7625    4.4362   -5.3935 C   0  0  0  0  0  0  0  0  0  0  0  0
    1.9995    5.1020   -4.9886 O   0  0  0  0  0  0  0  0  0  0  0  0
    3.2704    5.5952   -4.5300 C   0  0  0  0  0  0  0  0  0  0  0  0
    4.3389    5.2506   -5.4653 N   0  0  0  0  0  0  0  0  0  0  0  0
    4.8690    3.9369   -5.2634 C   0  0  0  0  0  0  0  0  0  0  0  0
    4.6518    2.9881   -6.4186 C   0  0  0  0  0  0  0  0  0  0  0  0
    4.8122    1.6158   -6.0185 N   0  0  0  0  0  0  0  0  0  0  0  0
    4.1313    0.6578   -6.8413 C   0  0  0  0  0  0  0  0  0  0  0  0
    3.6844   -0.5793   -6.1259 C   0  0  0  0  0  0  0  0  0  0  0  0
    2.3113   -1.2949   -7.0073 S   0  0  0  0  0  0  0  0  0  0  0  0
    1.4398   -2.6131   -6.0353 C   0  0  0  0  0  0  0  0  0  0  0  0
    1.8350   -3.9676   -5.9760 C   0  0  0  0  0  0  0  0  0  0  0  0
    2.1977   -4.3637   -4.6911 C   0  0  0  0  0  0  0  0  0  0  0  0
    1.5397   -3.7516   -3.6290 C   0  0  0  0  0  0  0  0  0  0  0  0
    0.4223   -2.9533   -3.8559 C   0  0  0  0  0  0  0  0  0  0  0  0
    0.3400   -2.4355   -5.1461 C   0  0  0  0  0  0  0  0  0  0  0  0
   -0.8699   -2.2116   -4.4548 O   0  0  0  0  0  0  0  0  0  0  0  0
   -2.2596   -2.1626   -4.1071 C   0  0  0  0  0  0  0  0  0  0  0  0
   -2.3684   -1.4304   -2.8898 N   0  0  0  0  0  0  0  0  0  0  0  0
   -3.6584   -0.7664   -2.7109 C   0  0  0  0  0  0  0  0  0  0  0  0
   -4.2889   -1.0531   -1.3903 C   0  0  0  0  0  0  0  0  0  0  0  0
   -4.4360    0.1254   -0.5367 N   0  0  0  0  0  0  0  0  0  0  0  0
   -4.7474   -0.2440    0.8137 C   0  0  0  0  0  0  0  0  0  0  0  0
   -4.0173    0.4913    1.7944 O   0  0  0  0  0  0  0  0  0  0  0  0
   -3.4904    1.3423    2.7881 C   0  0  0  0  0  0  0  0  0  0  0  0
   -3.7345    0.0797    3.3203 C   0  0  0  0  0  0  0  0  0  0  0  0
   -3.5321   -0.0218    4.6923 C   0  0  0  0  0  0  0  0  0  0  0  0
   -3.6584    1.1206    5.4754 C   0  0  0  0  0  0  0  0  0  0  0  0
   -3.6005    2.3532    4.8351 C   0  0  0  0  0  0  0  0  0  0  0  0
   -2.8828    2.3229    3.6229 C   0  0  0  0  0  0  0  0  0  0  0  0
   -1.3932    3.3824    3.3233 S   0  0  0  0  0  0  0  0  0  0  0  0
    0.1590    2.5533    3.4422 C   0  0  0  0  0  0  0  0  0  0  0  0
    1.1553    3.3191    2.5787 C   0  0  0  0  0  0  0  0  0  0  0  0
    1.9667    2.4899    1.7493 N   0  0  0  0  0  0  0  0  0  0  0  0
    2.3623    3.1610    0.5146 C   0  0  0  0  0  0  0  0  0  0  0  0
    3.0848    2.2379   -0.4365 C   0  0  0  0  0  0  0  0  0  0  0  0
    2.9191    2.6005   -1.8198 N   0  0  0  0  0  0  0  0  0  0  0  0
    2.7490    1.5075   -2.7302 C   0  0  0  0  0  0  0  0  0  0  0  0
    1.7325    1.7590   -3.7190 O   0  0  0  0  0  0  0  0  0  0  0  0
    0.6851    2.0394   -4.6788 C   0  0  0  0  0  0  0  0  0  0  0  0
   -0.5392    2.7122   -4.3647 C   0  0  0  0  0  0  0  0  0  0  0  0
   -0.4455    4.1073   -4.6125 C   0  0  0  0  0  0  0  0  0  0  0  0
   -1.8578    5.2193   -4.1806 S   0  0  0  0  0  0  0  0  0  0  0  0
   -1.8164    5.8962   -2.5176 C   0  0  0  0  0  0  0  0  0  0  0  0
   -1.1538    4.8581   -1.6178 C   0  0  0  0  0  0  0  0  0  0  0  0
   -1.9609    3.6707   -1.5111 N   0  0  0  0  0  0  0  0  0  0  0  0
   -1.6003    2.8025   -0.4367 C   0  0  0  0  0  0  0  0  0  0  0  0
   -0.9393    1.5294   -0.8401 C   0  0  0  0  0  0  0  0  0  0  0  0
   -0.9051    0.4887    0.1218 N   0  0  0  0  0  0  0  0  0  0  0  0
    0.2012   -0.4127    0.0200 C   0  0  0  0  0  0  0  0  0  0  0  0
   -0.0948   -1.8569    0.1605 C   0  0  0  0  0  0  0  0  0  0  0  0
   -1.4402   -2.3113    1.2128 S   0  0  0  0  0  0  0  0  0  0  0  0
   -1.0582   -3.7578    2.3175 C   0  0  0  0  0  0  0  0  0  0  0  0
   -0.9897   -5.1222    1.9678 C   0  0  0  0  0  0  0  0  0  0  0  0
    0.2732   -5.6707    2.1704 C   0  0  0  0  0  0  0  0  0  0  0  0
    1.0686   -5.1181    3.1682 C   0  0  0  0  0  0  0  0  0  0  0  0
    0.5107   -4.2554    4.1053 C   0  0  0  0  0  0  0  0  0  0  0  0
   -0.6629   -3.6401    3.6808 C   0  0  0  0  0  0  0  0  0  0  0  0
   -0.4683   -3.4716    5.0692 O   0  0  0  0  0  0  0  0  0  0  0  0
   -0.5637   -3.5299    6.4968 C   0  0  0  0  0  0  0  0  0  0  0  0
    0.0576   -2.3384    7.0099 N   0  0  0  0  0  0  0  0  0  0  0  0
   -0.1894   -2.2817    8.4487 C   0  0  0  0  0  0  0  0  0  0  0  0
   -1.6430   -1.9303    8.7423 C   0  0  0  0  0  0  0  0  0  0  0  0
   -1.9540   -0.7848    7.8912 N   0  0  0  0  0  0  0  0  0  0  0  0
   -3.2357   -0.9478    7.2483 C   0  0  0  0  0  0  0  0  0  0  0  0
   -3.3783    0.0076    6.2345 O   0  0  0  0  0  0  0  0  0  0  0  0
    1.6192   -6.0268    2.0367 O   0  0  0  0  0  0  0  0  0  0  0  0
    2.9246   -6.5379    1.8061 C   0  0  0  0  0  0  0  0  0  0  0  0
    3.8521   -5.4617    1.5618 N   0  0  0  0  0  0  0  0  0  0  0  0
    3.3387   -4.6965    0.4313 C   0  0  0  0  0  0  0  0  0  0  0  0
    4.5261   -4.1925   -0.3427 C   0  0  0  0  0  0  0  0  0  0  0  0
    4.0676   -3.6854   -1.6341 N   0  0  0  0  0  0  0  0  0  0  0  0
    3.8605   -4.8351   -2.4779 C   0  0  0  0  0  0  0  0  0  0  0  0
    2.9143   -4.5386   -3.5027 O   0  0  0  0  0  0  0  0  0  0  0  0
    0.9063    1.4810   -6.8530 H   0  0  0  0  0  0  0  0  0  0  0  0
    0.7436    3.7795   -7.5644 H   0  0  0  0  0  0  0  0  0  0  0  0
    3.1671    6.6939   -4.5280 H   0  0  0  0  0  0  0  0  0  0  0  0
    3.5588    5.1649   -3.5647 H   0  0  0  0  0  0  0  0  0  0  0  0
    4.0335    5.4585   -6.4310 H   0  0  0  0  0  0  0  0  0  0  0  0
    4.4848    3.5610   -4.3074 H   0  0  0  0  0  0  0  0  0  0  0  0
    5.9741    4.0535   -5.1222 H   0  0  0  0  0  0  0  0  0  0  0  0
    3.7198    3.1682   -6.9699 H   0  0  0  0  0  0  0  0  0  0  0  0
    5.4767    3.2010   -7.1463 H   0  0  0  0  0  0  0  0  0  0  0  0
    5.8069    1.3934   -5.8319 H   0  0  0  0  0  0  0  0  0  0  0  0
    4.8695    0.3266   -7.6164 H   0  0  0  0  0  0  0  0  0  0  0  0
    3.3154    1.1462   -7.4321 H   0  0  0  0  0  0  0  0  0  0  0  0
    4.5174   -1.3276   -6.1265 H   0  0  0  0  0  0  0  0  0  0  0  0
    3.4046   -0.4352   -5.0781 H   0  0  0  0  0  0  0  0  0  0  0  0
    1.9109   -4.6730   -6.7784 H   0  0  0  0  0  0  0  0  0  0  0  0
    1.7369   -4.1825   -2.6452 H   0  0  0  0  0  0  0  0  0  0  0  0
   -0.4602   -3.1006   -3.2312 H   0  0  0  0  0  0  0  0  0  0  0  0
   -2.7114   -3.1638   -4.0665 H   0  0  0  0  0  0  0  0  0  0  0  0
   -2.7915   -1.5849   -4.9026 H   0  0  0  0  0  0  0  0  0  0  0  0
   -2.3235   -2.1236   -2.0958 H   0  0  0  0  0  0  0  0  0  0  0  0
   -4.2800   -1.0634   -3.5727 H   0  0  0  0  0  0  0  0  0  0  0  0
   -3.5022    0.3373   -2.8146 H   0  0  0  0  0  0  0  0  0  0  0  0
   -3.8051   -1.8929   -0.8735 H   0  0  0  0  0  0  0  0  0  0  0  0
   -5.3377   -1.3881   -1.5962 H   0  0  0  0  0  0  0  0  0  0  0  0
   -5.1662    0.7204   -0.9645 H   0  0  0  0  0  0  0  0  0  0  0  0
   -5.8237   -0.1225    1.0181 H   0  0  0  0  0  0  0  0  0  0  0  0
   -4.4680   -1.3246    0.9070 H   0  0  0  0  0  0  0  0  0  0  0  0
   -4.3443   -0.6602    2.8072 H   0  0  0  0  0  0  0  0  0  0  0  0
   -3.7528   -1.0053    5.1111 H   0  0  0  0  0  0  0  0  0  0  0  0
   -4.1598    3.1926    5.2517 H   0  0  0  0  0  0  0  0  0  0  0  0
    0.4872    2.5328    4.5123 H   0  0  0  0  0  0  0  0  0  0  0  0
    0.1694    1.4915    3.1161 H   0  0  0  0  0  0  0  0  0  0  0  0
    0.6756    4.1020    1.9741 H   0  0  0  0  0  0  0  0  0  0  0  0
    1.8398    3.8534    3.2853 H   0  0  0  0  0  0  0  0  0  0  0  0
    2.8530    2.1645    2.1956 H   0  0  0  0  0  0  0  0  0  0  0  0
    3.0282    4.0011    0.8367 H   0  0  0  0  0  0  0  0  0  0  0  0
    1.5140    3.6285   -0.0059 H   0  0  0  0  0  0  0  0  0  0  0  0
    2.8741    1.1730   -0.2646 H   0  0  0  0  0  0  0  0  0  0  0  0
    4.1741    2.3621   -0.2039 H   0  0  0  0  0  0  0  0  0  0  0  0
    3.6438    3.2855   -2.0863 H   0  0  0  0  0  0  0  0  0  0  0  0
    3.7170    1.3463   -3.2283 H   0  0  0  0  0  0  0  0  0  0  0  0
    2.5242    0.5355   -2.2237 H   0  0  0  0  0  0  0  0  0  0  0  0
   -1.4119    2.1466   -4.0098 H   0  0  0  0  0  0  0  0  0  0  0  0
   -2.8787    5.9417   -2.1692 H   0  0  0  0  0  0  0  0  0  0  0  0
   -1.2898    6.8559   -2.4305 H   0  0  0  0  0  0  0  0  0  0  0  0
   -0.1499    4.6407   -2.0274 H   0  0  0  0  0  0  0  0  0  0  0  0
   -1.0652    5.3146   -0.6149 H   0  0  0  0  0  0  0  0  0  0  0  0
   -2.9639    3.9871   -1.4735 H   0  0  0  0  0  0  0  0  0  0  0  0
   -2.5266    2.5558    0.1007 H   0  0  0  0  0  0  0  0  0  0  0  0
   -0.8644    3.3690    0.1880 H   0  0  0  0  0  0  0  0  0  0  0  0
    0.0883    1.7700   -1.1376 H   0  0  0  0  0  0  0  0  0  0  0  0
   -1.4463    1.2075   -1.7803 H   0  0  0  0  0  0  0  0  0  0  0  0
   -0.9323    0.8470    1.0868 H   0  0  0  0  0  0  0  0  0  0  0  0
    1.0349   -0.1744    0.7280 H   0  0  0  0  0  0  0  0  0  0  0  0
    0.6432   -0.2516   -0.9963 H   0  0  0  0  0  0  0  0  0  0  0  0
   -0.2808   -2.2937   -0.8545 H   0  0  0  0  0  0  0  0  0  0  0  0
    0.8222   -2.3950    0.5152 H   0  0  0  0  0  0  0  0  0  0  0  0
   -1.7552   -5.7422    1.5524 H   0  0  0  0  0  0  0  0  0  0  0  0
    1.9311   -5.6878    3.5178 H   0  0  0  0  0  0  0  0  0  0  0  0
    0.8555   -4.2619    5.1191 H   0  0  0  0  0  0  0  0  0  0  0  0
   -0.0974   -4.4534    6.9019 H   0  0  0  0  0  0  0  0  0  0  0  0
   -1.6455   -3.6137    6.7730 H   0  0  0  0  0  0  0  0  0  0  0  0
   -0.4054   -1.5135    6.5921 H   0  0  0  0  0  0  0  0  0  0  0  0
    0.4057   -1.4094    8.8163 H   0  0  0  0  0  0  0  0  0  0  0  0
    0.1325   -3.1942    8.9704 H   0  0  0  0  0  0  0  0  0  0  0  0
   -2.3232   -2.7805    8.5581 H   0  0  0  0  0  0  0  0  0  0  0  0
   -1.7113   -1.6847    9.8149 H   0  0  0  0  0  0  0  0  0  0  0  0
   -2.0067    0.0702    8.4904 H   0  0  0  0  0  0  0  0  0  0  0  0
   -3.3988   -1.9820    6.8626 H   0  0  0  0  0  0  0  0  0  0  0  0
   -4.0057   -0.8205    8.0513 H   0  0  0  0  0  0  0  0  0  0  0  0
    3.2583   -7.0337    2.7528 H   0  0  0  0  0  0  0  0  0  0  0  0
    2.9543   -7.3103    1.0256 H   0  0  0  0  0  0  0  0  0  0  0  0
    3.8873   -4.8381    2.3864 H   0  0  0  0  0  0  0  0  0  0  0  0
    2.6557   -5.3269   -0.1612 H   0  0  0  0  0  0  0  0  0  0  0  0
    2.7575   -3.8199    0.7647 H   0  0  0  0  0  0  0  0  0  0  0  0
    5.2115   -5.0524   -0.5507 H   0  0  0  0  0  0  0  0  0  0  0  0
    5.0256   -3.4228    0.2621 H   0  0  0  0  0  0  0  0  0  0  0  0
    4.8434   -3.0658   -1.9792 H   0  0  0  0  0  0  0  0  0  0  0  0
    3.5744   -5.7464   -1.9324 H   0  0  0  0  0  0  0  0  0  0  0  0
    4.8500   -5.0603   -2.9510 H   0  0  0  0  0  0  0  0  0  0  0  0
  1  2  2  0
  2  3  1  0
  3  4  1  0
  4  5  1  0
  5  6  1  0
  6  7  1  0
  7  8  1  0
  8  9  1  0
  9 10  1  0
 10 11  1  0
 11 12  1  0
 12 13  1  0
 13 14  2  0
 14 15  1  0
 15 16  2  0
 16 17  1  0
 17 18  2  0
 18 19  1  0
 19 20  1  0
 20 21  1  0
 21 22  1  0
 22 23  1  0
 23 24  1  0
 24 25  1  0
 25 26  1  0
 26 27  1  0
 27 28  2  0
 28 29  1  0
 29 30  2  0
 30 31  1  0
 31 32  2  0
 32 33  1  0
 33 34  1  0
 34 35  1  0
 35 36  1  0
 36 37  1  0
 37 38  1  0
 38 39  1  0
 39 40  1  0
 40 41  1  0
 41 42  1  0
 42 43  2  0
 43 44  1  0
 44 45  1  0
 45 46  1  0
 46 47  1  0
 47 48  1  0
 48 49  1  0
 49 50  1  0
 50 51  1  0
 51 52  1  0
 52 53  1  0
 53 54  1  0
 54 55  1  0
 55 56  1  0
 56 57  2  0
 57 58  1  0
 58 59  2  0
 59 60  1  0
 60 61  1  0
 61 62  1  0
 62 63  1  0
 63 64  1  0
 64 65  1  0
 65 66  1  0
 66 67  1  0
 67 68  1  0
 57 69  1  0
 69 70  1  0
 70 71  1  0
 71 72  1  0
 72 73  1  0
 73 74  1  0
 74 75  1  0
 75 76  1  0
 42  1  1  0
 60 55  2  0
 44  3  2  0
 18 13  1  0
 32 27  1  0
 76 15  1  0
 68 30  1  0
  1 77  1  0
  2 78  1  0
  5 79  1  0
  5 80  1  0
  6 81  1  0
  7 82  1  0
  7 83  1  0
  8 84  1  0
  8 85  1  0
  9 86  1  0
 10 87  1  0
 10 88  1  0
 11 89  1  0
 11 90  1  0
 14 91  1  0
 16 92  1  0
 17 93  1  0
 20 94  1  0
 20 95  1  0
 21 96  1  0
 22 97  1  0
 22 98  1  0
 23 99  1  0
 23100  1  0
 24101  1  0
 25102  1  0
 25103  1  0
 28104  1  0
 29105  1  0
 31106  1  0
 34107  1  0
 34108  1  0
 35109  1  0
 35110  1  0
 36111  1  0
 37112  1  0
 37113  1  0
 38114  1  0
 38115  1  0
 39116  1  0
 40117  1  0
 40118  1  0
 43119  1  0
 46120  1  0
 46121  1  0
 47122  1  0
 47123  1  0
 48124  1  0
 49125  1  0
 49126  1  0
 50127  1  0
 50128  1  0
 51129  1  0
 52130  1  0
 52131  1  0
 53132  1  0
 53133  1  0
 56134  1  0
 58135  1  0
 59136  1  0
 62137  1  0
 62138  1  0
 63139  1  0
 64140  1  0
 64141  1  0
 65142  1  0
 65143  1  0
 66144  1  0
 67145  1  0
 67146  1  0
 70147  1  0
 70148  1  0
 71149  1  0
 72150  1  0
 72151  1  0
 73152  1  0
 73153  1  0
 74154  1  0
 75155  1  0
 75156  1  0
M  END
