
     RDKit          3D

172178  0  0  0  0  0  0  0  0999 V2000
    3.1383   -1.8006   -3.6631 O   0  0  0  0  0  0  0  0  0  0  0  0
    3.1741   -1.5064   -3.7443 C   0  0  0  0  0  0  0  0  0  0  0  0
    2.0005   -2.4412   -3.8404 C   0  0  0  0  0  0  0  0  0  0  0  0
    0.7183   -1.7175   -3.4400 C   0  0  0  0  0  0  0  0  0  0  0  0
    0.8471   -1.1558   -2.0579 C   0  0  0  0  0  0  0  0  0  0  0  0
    0.6943    0.2679   -1.9680 N   0  0  0  0  0  0  0  0  0  0  0  0
   -0.5668    0.7005   -1.4366 C   0  0  0  0  0  0  0  0  0  0  0  0
   -0.8395    0.2278   -0.0384 C   0  0  0  0  0  0  0  0  0  0  0  0
   -1.8082    1.0289    0.6646 N   0  0  0  0  0  0  0  0  0  0  0  0
   -3.0554    0.3203    0.8774 C   0  0  0  0  0  0  0  0  0  0  0  0
   -3.1342   -0.3813    2.2016 C   0  0  0  0  0  0  0  0  0  0  0  0
   -4.5290   -0.3104    2.8123 C   0  0  0  0  0  0  0  0  0  0  0  0
   -4.6308    0.8239    3.8000 C   0  0  0  0  0  0  0  0  0  0  0  0
   -5.8451    0.5980    3.8766 O   0  0  0  0  0  0  0  0  0  0  0  0
   -4.5369    2.1154    4.5755 C   0  0  0  0  0  0  0  0  0  0  0  0
   -3.8992    2.1674    5.8567 C   0  0  0  0  0  0  0  0  0  0  0  0
   -3.7682    3.4954    6.3556 C   0  0  0  0  0  0  0  0  0  0  0  0
   -5.1409    3.8713    6.4093 C   0  0  0  0  0  0  0  0  0  0  0  0
   -5.6868    4.0411    5.1383 C   0  0  0  0  0  0  0  0  0  0  0  0
   -4.8015    3.5192    4.1424 C   0  0  0  0  0  0  0  0  0  0  0  0
   -4.1006    4.4347    3.2382 O   0  0  0  0  0  0  0  0  0  0  0  0
   -3.3349    5.1893    2.2890 C   0  0  0  0  0  0  0  0  0  0  0  0
   -3.9951    5.0480    0.9931 N   0  0  0  0  0  0  0  0  0  0  0  0
   -4.9818    3.9778    1.0449 C   0  0  0  0  0  0  0  0  0  0  0  0
   -5.3826    3.5323   -0.3343 C   0  0  0  0  0  0  0  0  0  0  0  0
   -6.6586    2.8668   -0.3550 N   0  0  0  0  0  0  0  0  0  0  0  0
   -6.6387    1.6307   -1.1307 C   0  0  0  0  0  0  0  0  0  0  0  0
   -6.1242    1.9066   -2.4454 O   0  0  0  0  0  0  0  0  0  0  0  0
   -5.6522    2.1285   -3.7960 C   0  0  0  0  0  0  0  0  0  0  0  0
   -6.0504    1.5966   -5.0559 C   0  0  0  0  0  0  0  0  0  0  0  0
   -5.3162    0.4606   -5.3935 C   0  0  0  0  0  0  0  0  0  0  0  0
   -4.1841    0.2988   -4.5262 C   0  0  0  0  0  0  0  0  0  0  0  0
   -4.1558   -0.7853   -3.5459 O   0  0  0  0  0  0  0  0  0  0  0  0
   -4.1783   -1.7502   -2.4868 C   0  0  0  0  0  0  0  0  0  0  0  0
   -2.8424   -2.3126   -2.2991 N   0  0  0  0  0  0  0  0  0  0  0  0
   -3.0610   -3.3354   -1.2763 C   0  0  0  0  0  0  0  0  0  0  0  0
   -1.8048   -3.9818   -0.7928 C   0  0  0  0  0  0  0  0  0  0  0  0
   -1.5824   -3.7220    0.6023 N   0  0  0  0  0  0  0  0  0  0  0  0
   -0.2124   -3.5631    0.9795 C   0  0  0  0  0  0  0  0  0  0  0  0
   -0.0662   -3.7602    2.3934 O   0  0  0  0  0  0  0  0  0  0  0  0
    0.2159   -4.0629    3.7999 C   0  0  0  0  0  0  0  0  0  0  0  0
   -0.7911   -3.8155    4.7838 C   0  0  0  0  0  0  0  0  0  0  0  0
   -0.4224   -2.7763    5.6314 C   0  0  0  0  0  0  0  0  0  0  0  0
    0.6827   -2.0409    5.1214 C   0  0  0  0  0  0  0  0  0  0  0  0
    1.7221   -3.0016    5.2802 C   0  0  0  0  0  0  0  0  0  0  0  0
    1.4839   -4.2206    4.5683 C   0  0  0  0  0  0  0  0  0  0  0  0
    2.5383   -5.3021    4.5167 C   0  0  0  0  0  0  0  0  0  0  0  0
    1.9701   -6.1823    5.2184 O   0  0  0  0  0  0  0  0  0  0  0  0
    3.6004   -6.3230    4.2164 C   0  0  0  0  0  0  0  0  0  0  0  0
    4.8973   -5.7545    3.7694 C   0  0  0  0  0  0  0  0  0  0  0  0
    4.8091   -4.4668    3.0115 C   0  0  0  0  0  0  0  0  0  0  0  0
    4.9793   -4.7095    1.5837 N   0  0  0  0  0  0  0  0  0  0  0  0
    5.2441   -3.5016    0.8454 C   0  0  0  0  0  0  0  0  0  0  0  0
    6.4225   -2.7256    1.3593 C   0  0  0  0  0  0  0  0  0  0  0  0
    7.0571   -1.9115    0.3554 N   0  0  0  0  0  0  0  0  0  0  0  0
    6.2743   -0.7703   -0.0447 C   0  0  0  0  0  0  0  0  0  0  0  0
    6.0484   -0.8209   -1.4594 O   0  0  0  0  0  0  0  0  0  0  0  0
    5.6755   -0.9027   -2.8756 C   0  0  0  0  0  0  0  0  0  0  0  0
    6.6654   -0.8408   -3.9081 C   0  0  0  0  0  0  0  0  0  0  0  0
    6.6252    0.3944   -4.5570 C   0  0  0  0  0  0  0  0  0  0  0  0
    5.7195    1.2995   -3.9323 C   0  0  0  0  0  0  0  0  0  0  0  0
    4.4682    0.6677   -4.1752 C   0  0  0  0  0  0  0  0  0  0  0  0
    4.3917   -0.6290   -3.5821 C   0  0  0  0  0  0  0  0  0  0  0  0
    5.9201    2.3331   -2.9370 O   0  0  0  0  0  0  0  0  0  0  0  0
    6.1957    3.3219   -1.9289 C   0  0  0  0  0  0  0  0  0  0  0  0
    5.0404    4.1890   -1.7571 N   0  0  0  0  0  0  0  0  0  0  0  0
    4.3679    4.4820   -2.9967 C   0  0  0  0  0  0  0  0  0  0  0  0
    2.8808    4.6511   -2.8510 C   0  0  0  0  0  0  0  0  0  0  0  0
    2.1269    3.4585   -3.1186 N   0  0  0  0  0  0  0  0  0  0  0  0
    1.4105    3.4835   -4.3680 C   0  0  0  0  0  0  0  0  0  0  0  0
   -0.0706    3.3503   -4.2307 C   0  0  0  0  0  0  0  0  0  0  0  0
   -0.5465    2.1644   -5.0459 C   0  0  0  0  0  0  0  0  0  0  0  0
   -2.0246    1.9311   -4.9213 C   0  0  0  0  0  0  0  0  0  0  0  0
   -2.0736    1.8035   -6.1837 O   0  0  0  0  0  0  0  0  0  0  0  0
   -3.4663    1.6056   -4.6035 C   0  0  0  0  0  0  0  0  0  0  0  0
   -4.3571    2.6210   -4.1281 C   0  0  0  0  0  0  0  0  0  0  0  0
    0.7704   -0.8462    4.3107 O   0  0  0  0  0  0  0  0  0  0  0  0
    0.7852    0.4365    3.6595 C   0  0  0  0  0  0  0  0  0  0  0  0
    1.0027    1.4350    4.6908 N   0  0  0  0  0  0  0  0  0  0  0  0
    0.6248    2.7615    4.2817 C   0  0  0  0  0  0  0  0  0  0  0  0
   -0.5843    3.2954    4.9956 C   0  0  0  0  0  0  0  0  0  0  0  0
   -0.4410    4.7051    5.3547 N   0  0  0  0  0  0  0  0  0  0  0  0
   -1.3669    5.0927    6.3820 C   0  0  0  0  0  0  0  0  0  0  0  0
   -2.5443    4.2687    6.3851 O   0  0  0  0  0  0  0  0  0  0  0  0
    1.9280   -2.8605   -4.8503 H   0  0  0  0  0  0  0  0  0  0  0  0
    2.0838   -3.2878   -3.1456 H   0  0  0  0  0  0  0  0  0  0  0  0
   -0.0807   -2.4793   -3.5448 H   0  0  0  0  0  0  0  0  0  0  0  0
    0.5418   -0.9691   -4.2244 H   0  0  0  0  0  0  0  0  0  0  0  0
    1.8054   -1.5249   -1.6118 H   0  0  0  0  0  0  0  0  0  0  0  0
    0.0469   -1.5884   -1.4443 H   0  0  0  0  0  0  0  0  0  0  0  0
    1.4764    0.6239   -1.3678 H   0  0  0  0  0  0  0  0  0  0  0  0
   -1.3675    0.4737   -2.1550 H   0  0  0  0  0  0  0  0  0  0  0  0
   -0.5152    1.8173   -1.3750 H   0  0  0  0  0  0  0  0  0  0  0  0
    0.0974    0.0945    0.5224 H   0  0  0  0  0  0  0  0  0  0  0  0
   -1.2885   -0.7933   -0.1323 H   0  0  0  0  0  0  0  0  0  0  0  0
   -2.0272    1.8631    0.0722 H   0  0  0  0  0  0  0  0  0  0  0  0
   -3.9469    0.9260    0.6707 H   0  0  0  0  0  0  0  0  0  0  0  0
   -3.0449   -0.5008    0.1173 H   0  0  0  0  0  0  0  0  0  0  0  0
   -2.7485   -1.4091    2.1963 H   0  0  0  0  0  0  0  0  0  0  0  0
   -2.4884    0.1921    2.9085 H   0  0  0  0  0  0  0  0  0  0  0  0
   -4.8099   -1.2282    3.3426 H   0  0  0  0  0  0  0  0  0  0  0  0
   -5.2286   -0.1968    1.9753 H   0  0  0  0  0  0  0  0  0  0  0  0
   -3.4910    1.3368    6.4559 H   0  0  0  0  0  0  0  0  0  0  0  0
   -5.6538    4.3568    7.2454 H   0  0  0  0  0  0  0  0  0  0  0  0
   -6.7222    4.3576    4.9992 H   0  0  0  0  0  0  0  0  0  0  0  0
   -2.3036    4.8229    2.1981 H   0  0  0  0  0  0  0  0  0  0  0  0
   -3.2793    6.2280    2.6295 H   0  0  0  0  0  0  0  0  0  0  0  0
   -3.2881    4.7603    0.2654 H   0  0  0  0  0  0  0  0  0  0  0  0
   -5.8418    4.2582    1.6852 H   0  0  0  0  0  0  0  0  0  0  0  0
   -4.4556    3.1115    1.5199 H   0  0  0  0  0  0  0  0  0  0  0  0
   -5.3906    4.4086   -1.0046 H   0  0  0  0  0  0  0  0  0  0  0  0
   -4.5842    2.8481   -0.7153 H   0  0  0  0  0  0  0  0  0  0  0  0
   -7.4019    3.4812   -0.7498 H   0  0  0  0  0  0  0  0  0  0  0  0
   -7.6808    1.2868   -1.1729 H   0  0  0  0  0  0  0  0  0  0  0  0
   -6.0556    0.8335   -0.6507 H   0  0  0  0  0  0  0  0  0  0  0  0
   -7.0187    1.7414   -5.5455 H   0  0  0  0  0  0  0  0  0  0  0  0
   -5.5120   -0.0848   -6.3193 H   0  0  0  0  0  0  0  0  0  0  0  0
   -4.5538   -1.3276   -1.5456 H   0  0  0  0  0  0  0  0  0  0  0  0
   -4.8125   -2.6037   -2.7521 H   0  0  0  0  0  0  0  0  0  0  0  0
   -2.6157   -2.8343   -3.1870 H   0  0  0  0  0  0  0  0  0  0  0  0
   -3.7869   -4.0523   -1.7289 H   0  0  0  0  0  0  0  0  0  0  0  0
   -3.6184   -2.8148   -0.4578 H   0  0  0  0  0  0  0  0  0  0  0  0
   -0.9162   -3.7784   -1.4318 H   0  0  0  0  0  0  0  0  0  0  0  0
   -1.9628   -5.0882   -0.8791 H   0  0  0  0  0  0  0  0  0  0  0  0
   -2.0491   -4.4263    1.2011 H   0  0  0  0  0  0  0  0  0  0  0  0
    0.2391   -2.5992    0.7204 H   0  0  0  0  0  0  0  0  0  0  0  0
    0.3636   -4.3340    0.4065 H   0  0  0  0  0  0  0  0  0  0  0  0
   -1.6297   -4.4620    5.0494 H   0  0  0  0  0  0  0  0  0  0  0  0
   -1.1782   -2.4290    6.3416 H   0  0  0  0  0  0  0  0  0  0  0  0
    2.5914   -2.7310    5.9036 H   0  0  0  0  0  0  0  0  0  0  0  0
    3.2779   -7.0812    3.4956 H   0  0  0  0  0  0  0  0  0  0  0  0
    3.7971   -6.8760    5.1703 H   0  0  0  0  0  0  0  0  0  0  0  0
    5.5790   -5.6045    4.6449 H   0  0  0  0  0  0  0  0  0  0  0  0
    5.4183   -6.4875    3.1183 H   0  0  0  0  0  0  0  0  0  0  0  0
    5.6649   -3.8034    3.2972 H   0  0  0  0  0  0  0  0  0  0  0  0
    3.8987   -3.8833    3.1994 H   0  0  0  0  0  0  0  0  0  0  0  0
    4.0506   -5.0702    1.2509 H   0  0  0  0  0  0  0  0  0  0  0  0
    5.4868   -3.8124   -0.1944 H   0  0  0  0  0  0  0  0  0  0  0  0
    4.3722   -2.8176    0.8316 H   0  0  0  0  0  0  0  0  0  0  0  0
    6.2005   -2.0889    2.2274 H   0  0  0  0  0  0  0  0  0  0  0  0
    7.1843   -3.4797    1.6821 H   0  0  0  0  0  0  0  0  0  0  0  0
    8.0422   -1.6992    0.5802 H   0  0  0  0  0  0  0  0  0  0  0  0
    6.7256    0.1991    0.1985 H   0  0  0  0  0  0  0  0  0  0  0  0
    5.3270   -0.8298    0.5274 H   0  0  0  0  0  0  0  0  0  0  0  0
    7.3588   -1.6025   -4.2240 H   0  0  0  0  0  0  0  0  0  0  0  0
    7.4269    0.6579   -5.2541 H   0  0  0  0  0  0  0  0  0  0  0  0
    3.7004    1.2200   -4.7407 H   0  0  0  0  0  0  0  0  0  0  0  0
    7.0137    3.9681   -2.2664 H   0  0  0  0  0  0  0  0  0  0  0  0
    6.4612    2.8448   -0.9762 H   0  0  0  0  0  0  0  0  0  0  0  0
    4.3694    3.7114   -1.1102 H   0  0  0  0  0  0  0  0  0  0  0  0
    4.7604    5.4754   -3.3345 H   0  0  0  0  0  0  0  0  0  0  0  0
    4.6243    3.7805   -3.8166 H   0  0  0  0  0  0  0  0  0  0  0  0
    2.6292    5.0107   -1.8369 H   0  0  0  0  0  0  0  0  0  0  0  0
    2.5002    5.4366   -3.5519 H   0  0  0  0  0  0  0  0  0  0  0  0
    1.4999    3.1901   -2.3145 H   0  0  0  0  0  0  0  0  0  0  0  0
    1.7153    4.4311   -4.8813 H   0  0  0  0  0  0  0  0  0  0  0  0
    1.8130    2.6677   -4.9945 H   0  0  0  0  0  0  0  0  0  0  0  0
   -0.4455    3.3533   -3.2009 H   0  0  0  0  0  0  0  0  0  0  0  0
   -0.5245    4.2487   -4.7226 H   0  0  0  0  0  0  0  0  0  0  0  0
    0.0596    1.3072   -4.7540 H   0  0  0  0  0  0  0  0  0  0  0  0
   -0.2901    2.4290   -6.0773 H   0  0  0  0  0  0  0  0  0  0  0  0
   -4.1542    3.6916   -3.9565 H   0  0  0  0  0  0  0  0  0  0  0  0
   -0.1698    0.6666    3.1853 H   0  0  0  0  0  0  0  0  0  0  0  0
    1.5575    0.4260    2.8850 H   0  0  0  0  0  0  0  0  0  0  0  0
    2.0203    1.4115    4.9609 H   0  0  0  0  0  0  0  0  0  0  0  0
    0.4789    2.7397    3.1720 H   0  0  0  0  0  0  0  0  0  0  0  0
    1.4608    3.4863    4.4511 H   0  0  0  0  0  0  0  0  0  0  0  0
   -1.4251    3.2691    4.2569 H   0  0  0  0  0  0  0  0  0  0  0  0
   -0.7942    2.6965    5.8999 H   0  0  0  0  0  0  0  0  0  0  0  0
    0.5218    4.8606    5.7311 H   0  0  0  0  0  0  0  0  0  0  0  0
   -0.9160    4.9982    7.4014 H   0  0  0  0  0  0  0  0  0  0  0  0
   -1.6023    6.1533    6.2404 H   0  0  0  0  0  0  0  0  0  0  0  0
  1  2  2  0
  2  3  1  0
  3  4  1  0
  4  5  1  0
  5  6  1  0
  6  7  1  0
  7  8  1  0
  8  9  1  0
  9 10  1  0
 10 11  1  0
 11 12  1  0
 12 13  1  0
 13 14  2  0
 13 15  1  0
 15 16  2  0
 16 17  1  0
 17 18  2  0
 18 19  1  0
 19 20  2  0
 20 21  1  0
 21 22  1  0
 22 23  1  0
 23 24  1  0
 24 25  1  0
 25 26  1  0
 26 27  1  0
 27 28  1  0
 28 29  1  0
 29 30  2  0
 30 31  1  0
 31 32  2  0
 32 33  1  0
 33 34  1  0
 34 35  1  0
 35 36  1  0
 36 37  1  0
 37 38  1  0
 38 39  1  0
 39 40  1  0
 40 41  1  0
 41 42  2  0
 42 43  1  0
 43 44  2  0
 44 45  1  0
 45 46  2  0
 46 47  1  0
 47 48  2  0
 47 49  1  0
 49 50  1  0
 50 51  1  0
 51 52  1  0
 52 53  1  0
 53 54  1  0
 54 55  1  0
 55 56  1  0
 56 57  1  0
 57 58  1  0
 58 59  2  0
 59 60  1  0
 60 61  2  0
 61 62  1  0
 62 63  2  0
 61 64  1  0
 64 65  1  0
 65 66  1  0
 66 67  1  0
 67 68  1  0
 68 69  1  0
 69 70  1  0
 70 71  1  0
 71 72  1  0
 72 73  1  0
 73 74  2  0
 73 75  1  0
 75 76  2  0
 44 77  1  0
 77 78  1  0
 78 79  1  0
 79 80  1  0
 80 81  1  0
 81 82  1  0
 82 83  1  0
 83 84  1  0
 63  2  1  0
 20 15  1  0
 76 29  1  0
 84 17  1  0
 75 32  1  0
 46 41  1  0
 63 58  1  0
  3 85  1  0
  3 86  1  0
  4 87  1  0
  4 88  1  0
  5 89  1  0
  5 90  1  0
  6 91  1  0
  7 92  1  0
  7 93  1  0
  8 94  1  0
  8 95  1  0
  9 96  1  0
 10 97  1  0
 10 98  1  0
 11 99  1  0
 11100  1  0
 12101  1  0
 12102  1  0
 16103  1  0
 18104  1  0
 19105  1  0
 22106  1  0
 22107  1  0
 23108  1  0
 24109  1  0
 24110  1  0
 25111  1  0
 25112  1  0
 26113  1  0
 27114  1  0
 27115  1  0
 30116  1  0
 31117  1  0
 34118  1  0
 34119  1  0
 35120  1  0
 36121  1  0
 36122  1  0
 37123  1  0
 37124  1  0
 38125  1  0
 39126  1  0
 39127  1  0
 42128  1  0
 43129  1  0
 45130  1  0
 49131  1  0
 49132  1  0
 50133  1  0
 50134  1  0
 51135  1  0
 51136  1  0
 52137  1  0
 53138  1  0
 53139  1  0
 54140  1  0
 54141  1  0
 55142  1  0
 56143  1  0
 56144  1  0
 59145  1  0
 60146  1  0
 62147  1  0
 65148  1  0
 65149  1  0
 66150  1  0
 67151  1  0
 67152  1  0
 68153  1  0
 68154  1  0
 69155  1  0
 70156  1  0
 70157  1  0
 71158  1  0
 71159  1  0
 72160  1  0
 72161  1  0
 76162  1  0
 78163  1  0
 78164  1  0
 79165  1  0
 80166  1  0
 80167  1  0
 81168  1  0
 81169  1  0
 82170  1  0
 83171  1  0
 83172  1  0
M  END
