
     RDKit          3D

168174  0  0  0  0  0  0  0  0999 V2000
   -4.1660   -4.4896    2.7904 C   0  0  0  0  0  0  0  0  0  0  0  0
   -5.1972   -3.6411    2.8884 C   0  0  0  0  0  0  0  0  0  0  0  0
   -5.7417   -3.0191    1.6375 C   0  0  0  0  0  0  0  0  0  0  0  0
   -4.9807   -1.7298    1.4530 C   0  0  0  0  0  0  0  0  0  0  0  0
   -5.4165   -0.7833    2.3848 C   0  0  0  0  0  0  0  0  0  0  0  0
   -4.5498    0.3422    2.3368 C   0  0  0  0  0  0  0  0  0  0  0  0
   -3.5560    0.5614    3.3824 O   0  0  0  0  0  0  0  0  0  0  0  0
   -2.7072    1.0205    4.4338 C   0  0  0  0  0  0  0  0  0  0  0  0
   -1.7956    2.0136    4.1343 N   0  0  0  0  0  0  0  0  0  0  0  0
   -1.9634    3.3535    4.5279 C   0  0  0  0  0  0  0  0  0  0  0  0
   -0.7385    4.2030    4.5284 C   0  0  0  0  0  0  0  0  0  0  0  0
    0.0406    4.2757    3.3600 N   0  0  0  0  0  0  0  0  0  0  0  0
    0.1521    5.5696    2.7547 C   0  0  0  0  0  0  0  0  0  0  0  0
    0.9798    5.5316    1.5857 O   0  0  0  0  0  0  0  0  0  0  0  0
    1.7410    5.6042    0.3589 C   0  0  0  0  0  0  0  0  0  0  0  0
    3.0063    6.2363    0.1732 C   0  0  0  0  0  0  0  0  0  0  0  0
    4.0520    5.3451   -0.1103 C   0  0  0  0  0  0  0  0  0  0  0  0
    5.3384    6.0028   -0.4819 C   0  0  0  0  0  0  0  0  0  0  0  0
    5.1274    6.9068   -1.6595 C   0  0  0  0  0  0  0  0  0  0  0  0
    4.8418    6.3419   -2.8372 C   0  0  0  0  0  0  0  0  0  0  0  0
    3.7084    3.9523   -0.0420 C   0  0  0  0  0  0  0  0  0  0  0  0
    2.6378    3.8866   -0.9919 C   0  0  0  0  0  0  0  0  0  0  0  0
    1.5852    4.7929   -0.8170 C   0  0  0  0  0  0  0  0  0  0  0  0
    1.2179    3.9148   -1.8624 O   0  0  0  0  0  0  0  0  0  0  0  0
    0.8063    3.2820   -3.0700 C   0  0  0  0  0  0  0  0  0  0  0  0
   -0.6090    3.2532   -3.2623 N   0  0  0  0  0  0  0  0  0  0  0  0
   -1.0977    2.3298   -4.2180 C   0  0  0  0  0  0  0  0  0  0  0  0
   -2.4896    1.7836   -3.9112 C   0  0  0  0  0  0  0  0  0  0  0  0
   -3.0646    1.0593   -4.9952 N   0  0  0  0  0  0  0  0  0  0  0  0
   -3.9058   -0.0734   -4.6125 C   0  0  0  0  0  0  0  0  0  0  0  0
   -3.3380   -1.3203   -5.0472 O   0  0  0  0  0  0  0  0  0  0  0  0
   -2.2522   -2.2137   -5.2603 C   0  0  0  0  0  0  0  0  0  0  0  0
   -3.1685   -2.8198   -4.3995 C   0  0  0  0  0  0  0  0  0  0  0  0
   -2.8552   -4.0357   -3.7767 C   0  0  0  0  0  0  0  0  0  0  0  0
   -3.8106   -4.9309   -3.1831 C   0  0  0  0  0  0  0  0  0  0  0  0
   -5.1187   -4.1501   -3.3423 C   0  0  0  0  0  0  0  0  0  0  0  0
   -6.2356   -4.5690   -2.7281 C   0  0  0  0  0  0  0  0  0  0  0  0
   -1.8065   -4.7107   -4.4150 C   0  0  0  0  0  0  0  0  0  0  0  0
   -1.1199   -4.1257   -5.4810 C   0  0  0  0  0  0  0  0  0  0  0  0
   -0.9033   -2.7347   -5.2767 C   0  0  0  0  0  0  0  0  0  0  0  0
    0.3644   -2.1218   -4.9076 O   0  0  0  0  0  0  0  0  0  0  0  0
    1.3648   -1.3505   -4.2141 C   0  0  0  0  0  0  0  0  0  0  0  0
    1.1410   -1.2821   -2.8181 N   0  0  0  0  0  0  0  0  0  0  0  0
   -0.1030   -0.8397   -2.3138 C   0  0  0  0  0  0  0  0  0  0  0  0
   -0.6568   -1.7016   -1.1837 C   0  0  0  0  0  0  0  0  0  0  0  0
   -2.0352   -1.6862   -1.0002 N   0  0  0  0  0  0  0  0  0  0  0  0
   -2.5564   -1.8094    0.3026 C   0  0  0  0  0  0  0  0  0  0  0  0
   -4.0148   -1.3860    0.4724 C   0  0  0  0  0  0  0  0  0  0  0  0
   -4.6484   -0.1994   -0.0026 C   0  0  0  0  0  0  0  0  0  0  0  0
   -4.6862    0.8568    0.9620 C   0  0  0  0  0  0  0  0  0  0  0  0
   -4.6316    2.2176    0.4774 O   0  0  0  0  0  0  0  0  0  0  0  0
   -4.1798    3.5279    0.0893 C   0  0  0  0  0  0  0  0  0  0  0  0
   -2.8307    3.4697   -0.4713 N   0  0  0  0  0  0  0  0  0  0  0  0
   -1.8378    3.0835    0.4816 C   0  0  0  0  0  0  0  0  0  0  0  0
   -1.2653    1.7417    0.4171 C   0  0  0  0  0  0  0  0  0  0  0  0
    0.1734    1.6257    0.6533 N   0  0  0  0  0  0  0  0  0  0  0  0
    0.5357    0.7882    1.7374 C   0  0  0  0  0  0  0  0  0  0  0  0
    1.6364   -0.0811    1.4482 O   0  0  0  0  0  0  0  0  0  0  0  0
    2.7036   -1.0400    1.2992 C   0  0  0  0  0  0  0  0  0  0  0  0
    2.8589   -2.0415    0.3086 C   0  0  0  0  0  0  0  0  0  0  0  0
    2.6185   -3.3190    0.8118 C   0  0  0  0  0  0  0  0  0  0  0  0
    1.9220   -4.5479    1.3399 C   0  0  0  0  0  0  0  0  0  0  0  0
    0.5860   -4.6775    0.7526 N   0  0  0  0  0  0  0  0  0  0  0  0
    0.5698   -5.5203   -0.4146 C   0  0  0  0  0  0  0  0  0  0  0  0
   -0.7990   -5.7037   -1.0039 C   0  0  0  0  0  0  0  0  0  0  0  0
   -0.7814   -5.5482   -2.4249 N   0  0  0  0  0  0  0  0  0  0  0  0
   -2.0744   -5.2004   -3.0186 C   0  0  0  0  0  0  0  0  0  0  0  0
    3.0144   -3.6912    2.1026 C   0  0  0  0  0  0  0  0  0  0  0  0
    3.8041   -2.7066    2.7144 C   0  0  0  0  0  0  0  0  0  0  0  0
    3.6867   -1.3903    2.2839 C   0  0  0  0  0  0  0  0  0  0  0  0
    4.7381   -1.4404    3.2286 O   0  0  0  0  0  0  0  0  0  0  0  0
    6.0314   -1.1659    3.7645 C   0  0  0  0  0  0  0  0  0  0  0  0
    6.6852   -0.0719    3.0492 N   0  0  0  0  0  0  0  0  0  0  0  0
    5.8633    1.0967    2.9098 C   0  0  0  0  0  0  0  0  0  0  0  0
    6.1719    1.9349    1.7103 C   0  0  0  0  0  0  0  0  0  0  0  0
    5.1259    2.0729    0.7509 N   0  0  0  0  0  0  0  0  0  0  0  0
    4.0717    2.9703    1.0821 C   0  0  0  0  0  0  0  0  0  0  0  0
    3.0271   -4.9569    2.6832 C   0  0  0  0  0  0  0  0  0  0  0  0
    4.4855   -5.3882    2.5927 C   0  0  0  0  0  0  0  0  0  0  0  0
    4.8365   -6.6669    2.4477 C   0  0  0  0  0  0  0  0  0  0  0  0
   -3.1968   -4.1650    3.1472 H   0  0  0  0  0  0  0  0  0  0  0  0
   -4.1601   -5.1119    1.8900 H   0  0  0  0  0  0  0  0  0  0  0  0
   -5.3860   -3.2344    3.8755 H   0  0  0  0  0  0  0  0  0  0  0  0
   -6.8158   -2.8227    1.7518 H   0  0  0  0  0  0  0  0  0  0  0  0
   -5.5772   -3.7402    0.8357 H   0  0  0  0  0  0  0  0  0  0  0  0
   -6.3080   -0.9211    2.9897 H   0  0  0  0  0  0  0  0  0  0  0  0
   -2.1643    0.1080    4.7943 H   0  0  0  0  0  0  0  0  0  0  0  0
   -3.2983    1.3449    5.3300 H   0  0  0  0  0  0  0  0  0  0  0  0
   -0.8144    1.7382    4.4104 H   0  0  0  0  0  0  0  0  0  0  0  0
   -2.7145    3.8359    3.8541 H   0  0  0  0  0  0  0  0  0  0  0  0
   -2.3965    3.3910    5.5414 H   0  0  0  0  0  0  0  0  0  0  0  0
   -1.0469    5.2373    4.8251 H   0  0  0  0  0  0  0  0  0  0  0  0
   -0.0870    3.8516    5.3685 H   0  0  0  0  0  0  0  0  0  0  0  0
    0.9840    3.8374    3.4500 H   0  0  0  0  0  0  0  0  0  0  0  0
    0.5270    6.2685    3.5109 H   0  0  0  0  0  0  0  0  0  0  0  0
   -0.8835    5.9145    2.5056 H   0  0  0  0  0  0  0  0  0  0  0  0
    3.1730    7.3163    0.1020 H   0  0  0  0  0  0  0  0  0  0  0  0
    5.6680    6.5928    0.3954 H   0  0  0  0  0  0  0  0  0  0  0  0
    6.1370    5.3112   -0.7567 H   0  0  0  0  0  0  0  0  0  0  0  0
    4.8190    7.9275   -1.4211 H   0  0  0  0  0  0  0  0  0  0  0  0
    3.8139    6.0776   -3.0416 H   0  0  0  0  0  0  0  0  0  0  0  0
    5.6218    5.9980   -3.4932 H   0  0  0  0  0  0  0  0  0  0  0  0
    2.5894    3.2892   -1.9051 H   0  0  0  0  0  0  0  0  0  0  0  0
    1.2592    3.8527   -3.9082 H   0  0  0  0  0  0  0  0  0  0  0  0
    1.1641    2.2352   -3.0132 H   0  0  0  0  0  0  0  0  0  0  0  0
   -1.0768    4.1749   -3.2369 H   0  0  0  0  0  0  0  0  0  0  0  0
   -1.1788    2.8582   -5.2013 H   0  0  0  0  0  0  0  0  0  0  0  0
   -0.3566    1.5316   -4.3647 H   0  0  0  0  0  0  0  0  0  0  0  0
   -2.4951    1.1334   -3.0208 H   0  0  0  0  0  0  0  0  0  0  0  0
   -3.1294    2.6776   -3.7242 H   0  0  0  0  0  0  0  0  0  0  0  0
   -2.3378    0.7117   -5.6743 H   0  0  0  0  0  0  0  0  0  0  0  0
   -4.8260    0.0348   -5.2419 H   0  0  0  0  0  0  0  0  0  0  0  0
   -4.1220   -0.1012   -3.5367 H   0  0  0  0  0  0  0  0  0  0  0  0
   -4.0223   -2.2883   -3.9845 H   0  0  0  0  0  0  0  0  0  0  0  0
   -3.9241   -5.1151   -2.1224 H   0  0  0  0  0  0  0  0  0  0  0  0
   -4.1500   -5.7809   -3.8417 H   0  0  0  0  0  0  0  0  0  0  0  0
   -5.3373   -3.7781   -4.3513 H   0  0  0  0  0  0  0  0  0  0  0  0
   -6.2478   -5.5606   -2.2689 H   0  0  0  0  0  0  0  0  0  0  0  0
   -6.7457   -3.7972   -2.1430 H   0  0  0  0  0  0  0  0  0  0  0  0
   -0.7406   -4.7154   -6.3215 H   0  0  0  0  0  0  0  0  0  0  0  0
    2.3062   -1.9081   -4.3784 H   0  0  0  0  0  0  0  0  0  0  0  0
    1.5152   -0.3654   -4.7159 H   0  0  0  0  0  0  0  0  0  0  0  0
    1.9450   -0.7242   -2.4247 H   0  0  0  0  0  0  0  0  0  0  0  0
    0.0586    0.2169   -1.9719 H   0  0  0  0  0  0  0  0  0  0  0  0
   -0.9218   -0.7451   -3.0304 H   0  0  0  0  0  0  0  0  0  0  0  0
   -0.1639   -1.5205   -0.2237 H   0  0  0  0  0  0  0  0  0  0  0  0
   -0.3217   -2.7208   -1.4955 H   0  0  0  0  0  0  0  0  0  0  0  0
   -2.5646   -1.1605   -1.6978 H   0  0  0  0  0  0  0  0  0  0  0  0
   -1.8763   -1.2803    1.0014 H   0  0  0  0  0  0  0  0  0  0  0  0
   -2.3527   -2.8639    0.4827 H   0  0  0  0  0  0  0  0  0  0  0  0
   -5.2253   -0.1790   -0.9487 H   0  0  0  0  0  0  0  0  0  0  0  0
   -4.8757    3.8833   -0.6778 H   0  0  0  0  0  0  0  0  0  0  0  0
   -4.2262    4.2459    0.9194 H   0  0  0  0  0  0  0  0  0  0  0  0
   -2.6679    4.3872   -0.9253 H   0  0  0  0  0  0  0  0  0  0  0  0
   -2.3423    3.2426    1.4689 H   0  0  0  0  0  0  0  0  0  0  0  0
   -1.0469    3.8417    0.4429 H   0  0  0  0  0  0  0  0  0  0  0  0
   -1.6859    1.1023    1.2352 H   0  0  0  0  0  0  0  0  0  0  0  0
   -1.5714    1.2699   -0.5348 H   0  0  0  0  0  0  0  0  0  0  0  0
    0.4627    2.5904    0.8813 H   0  0  0  0  0  0  0  0  0  0  0  0
   -0.3621    0.2031    2.0631 H   0  0  0  0  0  0  0  0  0  0  0  0
    0.7526    1.4242    2.6359 H   0  0  0  0  0  0  0  0  0  0  0  0
    3.1507   -1.8923   -0.7337 H   0  0  0  0  0  0  0  0  0  0  0  0
    1.6991   -4.2709    2.3230 H   0  0  0  0  0  0  0  0  0  0  0  0
    2.4660   -5.3136    0.8920 H   0  0  0  0  0  0  0  0  0  0  0  0
   -0.0915   -5.1086    1.4360 H   0  0  0  0  0  0  0  0  0  0  0  0
    1.1949   -5.0168   -1.1899 H   0  0  0  0  0  0  0  0  0  0  0  0
    1.0882   -6.4880   -0.2039 H   0  0  0  0  0  0  0  0  0  0  0  0
   -1.5032   -4.9527   -0.5887 H   0  0  0  0  0  0  0  0  0  0  0  0
   -1.1197   -6.7497   -0.7867 H   0  0  0  0  0  0  0  0  0  0  0  0
   -0.3053   -6.3115   -2.9381 H   0  0  0  0  0  0  0  0  0  0  0  0
   -2.4946   -6.1558   -2.9466 H   0  0  0  0  0  0  0  0  0  0  0  0
   -2.2718   -4.3317   -2.4361 H   0  0  0  0  0  0  0  0  0  0  0  0
    4.5607   -2.9207    3.4560 H   0  0  0  0  0  0  0  0  0  0  0  0
    6.6979   -2.0376    3.7035 H   0  0  0  0  0  0  0  0  0  0  0  0
    5.8574   -0.8343    4.8147 H   0  0  0  0  0  0  0  0  0  0  0  0
    7.5510    0.1405    3.5960 H   0  0  0  0  0  0  0  0  0  0  0  0
    4.7840    0.9200    2.9388 H   0  0  0  0  0  0  0  0  0  0  0  0
    6.0848    1.7339    3.8055 H   0  0  0  0  0  0  0  0  0  0  0  0
    7.0370    1.4498    1.1900 H   0  0  0  0  0  0  0  0  0  0  0  0
    6.5408    2.9589    1.9717 H   0  0  0  0  0  0  0  0  0  0  0  0
    5.4304    2.0877   -0.2400 H   0  0  0  0  0  0  0  0  0  0  0  0
    3.2248    2.3342    1.4331 H   0  0  0  0  0  0  0  0  0  0  0  0
    4.3123    3.4262    2.0495 H   0  0  0  0  0  0  0  0  0  0  0  0
    2.9811   -4.7792    3.8068 H   0  0  0  0  0  0  0  0  0  0  0  0
    2.5175   -5.8702    2.6558 H   0  0  0  0  0  0  0  0  0  0  0  0
    5.2708   -4.7708    3.0407 H   0  0  0  0  0  0  0  0  0  0  0  0
    5.7554   -6.9089    1.9466 H   0  0  0  0  0  0  0  0  0  0  0  0
    4.3312   -7.3643    3.1233 H   0  0  0  0  0  0  0  0  0  0  0  0
  1  2  2  3
  2  3  1  0
  3  4  1  0
  4  5  2  0
  5  6  1  0
  6  7  1  0
  7  8  1  0
  8  9  1  0
  9 10  1  0
 10 11  1  0
 11 12  1  0
 12 13  1  0
 13 14  1  0
 14 15  1  0
 15 16  2  0
 16 17  1  0
 17 18  1  0
 18 19  1  0
 19 20  2  3
 17 21  2  0
 21 22  1  0
 22 23  2  0
 23 24  1  0
 24 25  1  0
 25 26  1  0
 26 27  1  0
 27 28  1  0
 28 29  1  0
 29 30  1  0
 30 31  1  0
 31 32  1  0
 32 33  2  0
 33 34  1  0
 34 35  1  0
 35 36  1  0
 36 37  2  3
 34 38  2  0
 38 39  1  0
 39 40  2  0
 40 41  1  0
 41 42  1  0
 42 43  1  0
 43 44  1  0
 44 45  1  0
 45 46  1  0
 46 47  1  0
 47 48  1  0
 48 49  2  0
 49 50  1  0
 50 51  1  0
 51 52  1  0
 52 53  1  0
 53 54  1  0
 54 55  1  0
 55 56  1  0
 56 57  1  0
 57 58  1  0
 58 59  1  0
 59 60  2  0
 60 61  1  0
 61 62  1  0
 62 63  1  0
 63 64  1  0
 64 65  1  0
 65 66  1  0
 66 67  1  0
 61 68  2  0
 68 69  1  0
 69 70  2  0
 70 71  1  0
 71 72  1  0
 72 73  1  0
 73 74  1  0
 74 75  1  0
 75 76  1  0
 76 77  1  0
 68 78  1  0
 78 79  1  0
 79 80  2  3
 48  4  1  0
 70 59  1  0
 50  6  2  0
 23 15  1  0
 40 32  1  0
 77 21  1  0
 67 38  1  0
  1 81  1  0
  1 82  1  0
  2 83  1  0
  3 84  1  0
  3 85  1  0
  5 86  1  0
  8 87  1  0
  8 88  1  0
  9 89  1  0
 10 90  1  0
 10 91  1  0
 11 92  1  0
 11 93  1  0
 12 94  1  0
 13 95  1  0
 13 96  1  0
 16 97  1  0
 18 98  1  0
 18 99  1  0
 19100  1  0
 20101  1  0
 20102  1  0
 22103  1  0
 25104  1  0
 25105  1  0
 26106  1  0
 27107  1  0
 27108  1  0
 28109  1  0
 28110  1  0
 29111  1  0
 30112  1  0
 30113  1  0
 33114  1  0
 35115  1  0
 35116  1  0
 36117  1  0
 37118  1  0
 37119  1  0
 39120  1  0
 42121  1  0
 42122  1  0
 43123  1  0
 44124  1  0
 44125  1  0
 45126  1  0
 45127  1  0
 46128  1  0
 47129  1  0
 47130  1  0
 49131  1  0
 52132  1  0
 52133  1  0
 53134  1  0
 54135  1  0
 54136  1  0
 55137  1  0
 55138  1  0
 56139  1  0
 57140  1  0
 57141  1  0
 60142  1  0
 62143  1  0
 62144  1  0
 63145  1  0
 64146  1  0
 64147  1  0
 65148  1  0
 65149  1  0
 66150  1  0
 67151  1  0
 67152  1  0
 69153  1  0
 72154  1  0
 72155  1  0
 73156  1  0
 74157  1  0
 74158  1  0
 75159  1  0
 75160  1  0
 76161  1  0
 77162  1  0
 77163  1  0
 78164  1  0
 78165  1  0
 79166  1  0
 80167  1  0
 80168  1  0
M  END
