
     RDKit          3D

140146  0  0  0  0  0  0  0  0999 V2000
    4.9670   -0.0820   -1.8771 O   0  0  0  0  0  0  0  0  0  0  0  0
    5.0599    1.1453   -2.1561 C   0  0  0  0  0  0  0  0  0  0  0  0
    5.5443    1.6420   -0.8266 C   0  0  0  0  0  0  0  0  0  0  0  0
    5.0962    0.8969    0.2735 N   0  0  0  0  0  0  0  0  0  0  0  0
    5.3512    1.2648    1.5913 C   0  0  0  0  0  0  0  0  0  0  0  0
    4.2408    1.6251    2.4991 C   0  0  0  0  0  0  0  0  0  0  0  0
    3.9185    0.6399    3.5409 N   0  0  0  0  0  0  0  0  0  0  0  0
    2.5869    0.9371    3.8932 C   0  0  0  0  0  0  0  0  0  0  0  0
    2.0216    0.2807    5.1079 C   0  0  0  0  0  0  0  0  0  0  0  0
    1.5093   -0.2793    3.9513 C   0  0  0  0  0  0  0  0  0  0  0  0
    0.2686   -0.9015    4.0473 C   0  0  0  0  0  0  0  0  0  0  0  0
   -0.3118   -2.4239    3.2292 Br  0  0  0  0  0  0  0  0  0  0  0  0
   -0.6234   -0.5520    5.0761 C   0  0  0  0  0  0  0  0  0  0  0  0
    0.0681    0.0265    6.1624 C   0  0  0  0  0  0  0  0  0  0  0  0
   -1.4207    0.1342    6.2096 C   0  0  0  0  0  0  0  0  0  0  0  0
   -1.4166   -1.1117    5.9182 O   0  0  0  0  0  0  0  0  0  0  0  0
   -2.8428    0.3568    5.9776 N   0  0  0  0  0  0  0  0  0  0  0  0
   -4.1180    0.2714    5.2437 C   0  0  0  0  0  0  0  0  0  0  0  0
   -4.4018    1.3086    4.2352 C   0  0  0  0  0  0  0  0  0  0  0  0
   -4.3828    0.9236    2.8622 N   0  0  0  0  0  0  0  0  0  0  0  0
   -5.5793    1.2744    2.0978 C   0  0  0  0  0  0  0  0  0  0  0  0
   -5.4323    0.9119    0.6526 C   0  0  0  0  0  0  0  0  0  0  0  0
   -6.1300    1.8421    0.1387 O   0  0  0  0  0  0  0  0  0  0  0  0
   -5.5046    0.2885   -0.7061 C   0  0  0  0  0  0  0  0  0  0  0  0
   -5.2100    1.6128   -0.7334 C   0  0  0  0  0  0  0  0  0  0  0  0
   -5.0261    2.1169   -2.0292 C   0  0  0  0  0  0  0  0  0  0  0  0
   -4.7961    4.0164   -2.1376 Br  0  0  0  0  0  0  0  0  0  0  0  0
   -4.8095    1.2908   -3.1315 C   0  0  0  0  0  0  0  0  0  0  0  0
   -4.6654   -0.0275   -2.8539 C   0  0  0  0  0  0  0  0  0  0  0  0
   -3.7423    0.1512   -4.0338 C   0  0  0  0  0  0  0  0  0  0  0  0
   -3.2117   -1.0106   -4.6171 N   0  0  0  0  0  0  0  0  0  0  0  0
   -1.9780   -1.5505   -4.4583 C   0  0  0  0  0  0  0  0  0  0  0  0
   -0.7407   -0.9745   -5.1397 C   0  0  0  0  0  0  0  0  0  0  0  0
    0.3783   -1.4019   -4.4167 N   0  0  0  0  0  0  0  0  0  0  0  0
    1.6983   -1.3828   -4.8878 C   0  0  0  0  0  0  0  0  0  0  0  0
    2.5493   -0.2253   -4.4227 C   0  0  0  0  0  0  0  0  0  0  0  0
    3.4292   -1.2968   -4.5727 C   0  0  0  0  0  0  0  0  0  0  0  0
    4.7249   -1.0469   -4.1274 C   0  0  0  0  0  0  0  0  0  0  0  0
    6.0232   -2.3818   -4.4598 Br  0  0  0  0  0  0  0  0  0  0  0  0
    4.9871   -0.0690   -3.1523 C   0  0  0  0  0  0  0  0  0  0  0  0
    4.0159    0.9365   -3.1985 C   0  0  0  0  0  0  0  0  0  0  0  0
    3.1335    1.0799   -4.3107 C   0  0  0  0  0  0  0  0  0  0  0  0
    2.9565    2.2950   -5.2275 C   0  0  0  0  0  0  0  0  0  0  0  0
    2.8554    3.5355   -4.5180 N   0  0  0  0  0  0  0  0  0  0  0  0
    1.4791    3.8811   -4.1677 C   0  0  0  0  0  0  0  0  0  0  0  0
    1.3881    3.7794   -2.6788 C   0  0  0  0  0  0  0  0  0  0  0  0
    0.2500    3.1639   -2.1435 N   0  0  0  0  0  0  0  0  0  0  0  0
   -0.2366    1.9564   -2.6981 C   0  0  0  0  0  0  0  0  0  0  0  0
   -0.2888    0.7789   -1.7181 C   0  0  0  0  0  0  0  0  0  0  0  0
   -1.3412    0.1044   -1.0190 C   0  0  0  0  0  0  0  0  0  0  0  0
   -1.4045    0.5092    0.3195 C   0  0  0  0  0  0  0  0  0  0  0  0
   -0.2110    1.0225    0.8166 C   0  0  0  0  0  0  0  0  0  0  0  0
   -0.2486    2.6782    1.6025 Br  0  0  0  0  0  0  0  0  0  0  0  0
    0.8728    0.2638    0.3353 C   0  0  0  0  0  0  0  0  0  0  0  0
    0.8284    0.1629   -1.0711 C   0  0  0  0  0  0  0  0  0  0  0  0
    1.8712   -0.6741   -0.4333 C   0  0  0  0  0  0  0  0  0  0  0  0
    1.1155   -0.9846    0.4774 O   0  0  0  0  0  0  0  0  0  0  0  0
    2.4028   -2.0977   -0.3674 C   0  0  0  0  0  0  0  0  0  0  0  0
    3.2789   -2.2254    0.7821 C   0  0  0  0  0  0  0  0  0  0  0  0
    3.0250   -3.2405    1.7683 N   0  0  0  0  0  0  0  0  0  0  0  0
    3.9323   -3.1821    2.8862 C   0  0  0  0  0  0  0  0  0  0  0  0
    3.3742   -3.5857    4.2199 C   0  0  0  0  0  0  0  0  0  0  0  0
    3.4160   -2.5335    5.2234 N   0  0  0  0  0  0  0  0  0  0  0  0
    2.4502   -2.6968    6.2698 C   0  0  0  0  0  0  0  0  0  0  0  0
    2.1937   -1.4345    7.0825 C   0  0  0  0  0  0  0  0  0  0  0  0
    1.4561   -0.3668    6.2507 C   0  0  0  0  0  0  0  0  0  0  0  0
   -2.1960   -0.7711   -0.2580 N   0  0  0  0  0  0  0  0  0  0  0  0
   -2.9165   -1.9711    0.1652 C   0  0  0  0  0  0  0  0  0  0  0  0
   -3.6474   -2.6912   -0.8983 C   0  0  0  0  0  0  0  0  0  0  0  0
   -5.0585   -2.8605   -0.6831 N   0  0  0  0  0  0  0  0  0  0  0  0
   -5.8305   -2.1104   -1.6746 C   0  0  0  0  0  0  0  0  0  0  0  0
   -5.3571   -0.6537   -1.7650 C   0  0  0  0  0  0  0  0  0  0  0  0
    5.3145    2.7051   -0.6873 H   0  0  0  0  0  0  0  0  0  0  0  0
    6.6595    1.5755   -0.9000 H   0  0  0  0  0  0  0  0  0  0  0  0
    5.4252   -0.0931    0.1101 H   0  0  0  0  0  0  0  0  0  0  0  0
    6.0590    2.1362    1.5602 H   0  0  0  0  0  0  0  0  0  0  0  0
    5.9470    0.4745    2.1203 H   0  0  0  0  0  0  0  0  0  0  0  0
    4.4839    2.5454    3.0942 H   0  0  0  0  0  0  0  0  0  0  0  0
    3.3442    1.9131    1.9201 H   0  0  0  0  0  0  0  0  0  0  0  0
    4.5408    0.7580    4.3577 H   0  0  0  0  0  0  0  0  0  0  0  0
    1.8680    1.1016    3.1064 H   0  0  0  0  0  0  0  0  0  0  0  0
    2.6883    1.9892    4.2922 H   0  0  0  0  0  0  0  0  0  0  0  0
    2.1479   -0.4816    3.1627 H   0  0  0  0  0  0  0  0  0  0  0  0
   -1.3419    0.1320    4.5799 H   0  0  0  0  0  0  0  0  0  0  0  0
   -3.0294   -0.5976    6.3928 H   0  0  0  0  0  0  0  0  0  0  0  0
   -4.8790    0.2408    6.0650 H   0  0  0  0  0  0  0  0  0  0  0  0
   -4.2150   -0.7271    4.7442 H   0  0  0  0  0  0  0  0  0  0  0  0
   -3.7482    2.1880    4.4725 H   0  0  0  0  0  0  0  0  0  0  0  0
   -5.4371    1.6923    4.4347 H   0  0  0  0  0  0  0  0  0  0  0  0
   -3.6408    1.5361    2.4260 H   0  0  0  0  0  0  0  0  0  0  0  0
   -6.4563    0.7408    2.5389 H   0  0  0  0  0  0  0  0  0  0  0  0
   -5.7537    2.3788    2.1114 H   0  0  0  0  0  0  0  0  0  0  0  0
   -4.3151    1.8276   -0.1097 H   0  0  0  0  0  0  0  0  0  0  0  0
   -4.1685    1.7936   -3.8588 H   0  0  0  0  0  0  0  0  0  0  0  0
   -2.8884    0.7748   -3.7899 H   0  0  0  0  0  0  0  0  0  0  0  0
   -4.3921    0.5389   -4.8639 H   0  0  0  0  0  0  0  0  0  0  0  0
   -3.9568   -1.5806   -5.0882 H   0  0  0  0  0  0  0  0  0  0  0  0
   -1.7359   -1.7849   -3.3901 H   0  0  0  0  0  0  0  0  0  0  0  0
   -2.0185   -2.5852   -4.9037 H   0  0  0  0  0  0  0  0  0  0  0  0
   -0.8760    0.1260   -5.2029 H   0  0  0  0  0  0  0  0  0  0  0  0
   -0.6737   -1.3259   -6.2003 H   0  0  0  0  0  0  0  0  0  0  0  0
    0.2106   -1.8069   -3.4789 H   0  0  0  0  0  0  0  0  0  0  0  0
    2.1425   -2.2657   -4.3516 H   0  0  0  0  0  0  0  0  0  0  0  0
    1.6885   -1.4842   -5.9762 H   0  0  0  0  0  0  0  0  0  0  0  0
    3.2299   -1.8600   -5.4895 H   0  0  0  0  0  0  0  0  0  0  0  0
    5.9677    0.4179   -3.3182 H   0  0  0  0  0  0  0  0  0  0  0  0
    2.0142    2.2678   -5.7861 H   0  0  0  0  0  0  0  0  0  0  0  0
    3.7474    2.2994   -6.0212 H   0  0  0  0  0  0  0  0  0  0  0  0
    3.4802    3.4930   -3.6952 H   0  0  0  0  0  0  0  0  0  0  0  0
    0.7393    3.2919   -4.7233 H   0  0  0  0  0  0  0  0  0  0  0  0
    1.3522    4.9323   -4.5356 H   0  0  0  0  0  0  0  0  0  0  0  0
    2.2937    3.3187   -2.2071 H   0  0  0  0  0  0  0  0  0  0  0  0
    1.4103    4.8336   -2.2939 H   0  0  0  0  0  0  0  0  0  0  0  0
   -0.4376    3.7624   -1.6588 H   0  0  0  0  0  0  0  0  0  0  0  0
   -1.2778    2.2639   -2.9735 H   0  0  0  0  0  0  0  0  0  0  0  0
    0.1643    1.6603   -3.6752 H   0  0  0  0  0  0  0  0  0  0  0  0
   -2.3721    0.6758    0.6583 H   0  0  0  0  0  0  0  0  0  0  0  0
    1.8682    0.6946    0.5191 H   0  0  0  0  0  0  0  0  0  0  0  0
    2.8943   -2.3792   -1.3218 H   0  0  0  0  0  0  0  0  0  0  0  0
    1.5677   -2.8329   -0.2426 H   0  0  0  0  0  0  0  0  0  0  0  0
    3.3672   -1.2798    1.3188 H   0  0  0  0  0  0  0  0  0  0  0  0
    4.3170   -2.4431    0.4127 H   0  0  0  0  0  0  0  0  0  0  0  0
    2.9570   -4.1728    1.3221 H   0  0  0  0  0  0  0  0  0  0  0  0
    4.5118   -2.2257    2.9260 H   0  0  0  0  0  0  0  0  0  0  0  0
    4.7248   -3.9373    2.6344 H   0  0  0  0  0  0  0  0  0  0  0  0
    3.9753   -4.4138    4.6821 H   0  0  0  0  0  0  0  0  0  0  0  0
    2.3539   -4.0386    4.1311 H   0  0  0  0  0  0  0  0  0  0  0  0
    4.3620   -2.4420    5.6308 H   0  0  0  0  0  0  0  0  0  0  0  0
    1.4780   -3.0927    5.9425 H   0  0  0  0  0  0  0  0  0  0  0  0
    2.8588   -3.4118    6.9977 H   0  0  0  0  0  0  0  0  0  0  0  0
    3.0887   -1.0357    7.5689 H   0  0  0  0  0  0  0  0  0  0  0  0
    1.5831   -1.7907    7.9240 H   0  0  0  0  0  0  0  0  0  0  0  0
   -1.6325   -0.7590    0.6328 H   0  0  0  0  0  0  0  0  0  0  0  0
   -3.5801   -1.6178    0.9949 H   0  0  0  0  0  0  0  0  0  0  0  0
   -2.1484   -2.6458    0.5737 H   0  0  0  0  0  0  0  0  0  0  0  0
   -3.2417   -3.7251   -1.0542 H   0  0  0  0  0  0  0  0  0  0  0  0
   -3.5152   -2.1775   -1.8486 H   0  0  0  0  0  0  0  0  0  0  0  0
   -5.3558   -2.5213    0.2702 H   0  0  0  0  0  0  0  0  0  0  0  0
   -6.9111   -2.2049   -1.5090 H   0  0  0  0  0  0  0  0  0  0  0  0
   -5.6654   -2.6684   -2.5972 H   0  0  0  0  0  0  0  0  0  0  0  0
  1  2  2  0
  2  3  1  0
  3  4  1  0
  4  5  1  0
  5  6  1  0
  6  7  1  0
  7  8  1  0
  8  9  1  0
  9 10  2  0
 10 11  1  0
 11 12  1  0
 11 13  2  0
 13 14  1  0
 14 15  1  0
 15 16  2  0
 15 17  1  0
 17 18  1  0
 18 19  1  0
 19 20  1  0
 20 21  1  0
 21 22  1  0
 22 23  2  0
 22 24  1  0
 24 25  1  0
 25 26  2  0
 26 27  1  0
 26 28  1  0
 28 29  2  0
 29 30  1  0
 30 31  1  0
 31 32  1  0
 32 33  1  0
 33 34  1  0
 34 35  1  0
 35 36  1  0
 36 37  1  0
 37 38  2  0
 38 39  1  0
 38 40  1  0
 40 41  2  0
 41 42  1  0
 42 43  1  0
 43 44  1  0
 44 45  1  0
 45 46  1  0
 46 47  1  0
 47 48  1  0
 48 49  1  0
 49 50  2  0
 50 51  1  0
 51 52  2  0
 52 53  1  0
 52 54  1  0
 54 55  2  0
 55 56  1  0
 56 57  2  0
 56 58  1  0
 58 59  1  0
 59 60  1  0
 60 61  1  0
 61 62  1  0
 62 63  1  0
 63 64  1  0
 64 65  1  0
 65 66  1  0
 50 67  1  0
 67 68  1  0
 68 69  1  0
 69 70  1  0
 70 71  1  0
 71 72  1  0
 41  2  1  0
 55 49  1  0
 66  9  1  0
 66 14  2  0
 72 24  2  0
 72 29  1  0
 42 36  2  0
  3 73  1  0
  3 74  1  0
  4 75  1  0
  5 76  1  0
  5 77  1  0
  6 78  1  0
  6 79  1  0
  7 80  1  0
  8 81  1  0
  8 82  1  0
 10 83  1  0
 13 84  1  0
 17 85  1  0
 18 86  1  0
 18 87  1  0
 19 88  1  0
 19 89  1  0
 20 90  1  0
 21 91  1  0
 21 92  1  0
 25 93  1  0
 28 94  1  0
 30 95  1  0
 30 96  1  0
 31 97  1  0
 32 98  1  0
 32 99  1  0
 33100  1  0
 33101  1  0
 34102  1  0
 35103  1  0
 35104  1  0
 37105  1  0
 40106  1  0
 43107  1  0
 43108  1  0
 44109  1  0
 45110  1  0
 45111  1  0
 46112  1  0
 46113  1  0
 47114  1  0
 48115  1  0
 48116  1  0
 51117  1  0
 54118  1  0
 58119  1  0
 58120  1  0
 59121  1  0
 59122  1  0
 60123  1  0
 61124  1  0
 61125  1  0
 62126  1  0
 62127  1  0
 63128  1  0
 64129  1  0
 64130  1  0
 65131  1  0
 65132  1  0
 67133  1  0
 68134  1  0
 68135  1  0
 69136  1  0
 69137  1  0
 70138  1  0
 71139  1  0
 71140  1  0
M  END
