
     RDKit          3D

136138  0  0  0  0  0  0  0  0999 V2000
    1.1305    1.8927    4.5293 O   0  0  0  0  0  0  0  0  0  0  0  0
    1.3025    1.2107    4.3684 C   0  0  0  0  0  0  0  0  0  0  0  0
    0.3229    0.5283    5.2755 C   0  0  0  0  0  0  0  0  0  0  0  0
   -1.0689    0.7360    4.7491 C   0  0  0  0  0  0  0  0  0  0  0  0
   -1.6792   -0.5264    4.4164 N   0  0  0  0  0  0  0  0  0  0  0  0
   -3.0836   -0.3922    4.1203 C   0  0  0  0  0  0  0  0  0  0  0  0
   -3.5100   -1.2695    2.9488 C   0  0  0  0  0  0  0  0  0  0  0  0
   -4.8084   -0.8127    2.5311 N   0  0  0  0  0  0  0  0  0  0  0  0
   -5.4222   -1.6466    1.5282 C   0  0  0  0  0  0  0  0  0  0  0  0
   -4.5497   -1.8745    0.3237 C   0  0  0  0  0  0  0  0  0  0  0  0
   -5.2763   -1.7161   -0.9817 C   0  0  0  0  0  0  0  0  0  0  0  0
   -4.5915   -2.6430   -1.9820 C   0  0  0  0  0  0  0  0  0  0  0  0
   -3.3707   -1.8926   -2.4757 C   0  0  0  0  0  0  0  0  0  0  0  0
   -2.4529   -2.8540   -3.1553 C   0  0  0  0  0  0  0  0  0  0  0  0
   -3.3579   -3.3402   -3.8892 O   0  0  0  0  0  0  0  0  0  0  0  0
   -1.3781   -3.4850   -3.8335 N   0  0  0  0  0  0  0  0  0  0  0  0
   -0.1478   -3.5551   -4.6175 C   0  0  0  0  0  0  0  0  0  0  0  0
    0.9870   -2.8115   -3.9419 C   0  0  0  0  0  0  0  0  0  0  0  0
    2.0888   -3.7321   -3.8054 N   0  0  0  0  0  0  0  0  0  0  0  0
    3.2737   -3.3136   -4.5105 C   0  0  0  0  0  0  0  0  0  0  0  0
    3.9830   -2.1947   -3.8241 C   0  0  0  0  0  0  0  0  0  0  0  0
    5.0403   -2.4135   -4.4051 O   0  0  0  0  0  0  0  0  0  0  0  0
    4.4766   -0.9579   -3.1701 C   0  0  0  0  0  0  0  0  0  0  0  0
    3.7176   -0.6057   -1.9220 C   0  0  0  0  0  0  0  0  0  0  0  0
    4.4029   -1.0531   -0.6589 C   0  0  0  0  0  0  0  0  0  0  0  0
    4.3545   -2.5447   -0.4555 C   0  0  0  0  0  0  0  0  0  0  0  0
    3.5688   -2.9188    0.7119 N   0  0  0  0  0  0  0  0  0  0  0  0
    2.1650   -3.0888    0.3852 C   0  0  0  0  0  0  0  0  0  0  0  0
    1.2720   -2.1439    1.1415 C   0  0  0  0  0  0  0  0  0  0  0  0
    0.3904   -1.3840    0.2931 N   0  0  0  0  0  0  0  0  0  0  0  0
    0.2949   -0.0270    0.7837 C   0  0  0  0  0  0  0  0  0  0  0  0
   -0.5117    0.8498   -0.1364 C   0  0  0  0  0  0  0  0  0  0  0  0
   -1.1256    2.0374    0.5879 C   0  0  0  0  0  0  0  0  0  0  0  0
   -2.6197    1.8928    0.7145 C   0  0  0  0  0  0  0  0  0  0  0  0
   -3.2620    3.1400    0.2326 C   0  0  0  0  0  0  0  0  0  0  0  0
   -3.2317    3.7048    1.3218 O   0  0  0  0  0  0  0  0  0  0  0  0
   -4.2953    4.0349   -0.3833 C   0  0  0  0  0  0  0  0  0  0  0  0
   -5.6180    3.7327    0.1006 N   0  0  0  0  0  0  0  0  0  0  0  0
   -6.4504    3.0613   -0.8599 C   0  0  0  0  0  0  0  0  0  0  0  0
   -5.7771    1.9162   -1.5579 C   0  0  0  0  0  0  0  0  0  0  0  0
   -5.9926    0.6414   -0.8756 N   0  0  0  0  0  0  0  0  0  0  0  0
   -5.1888   -0.3346   -1.5619 C   0  0  0  0  0  0  0  0  0  0  0  0
    0.2803    1.2589   -1.3463 C   0  0  0  0  0  0  0  0  0  0  0  0
   -0.0504    2.5917   -1.7968 N   0  0  0  0  0  0  0  0  0  0  0  0
    1.1335    3.2652   -2.2716 C   0  0  0  0  0  0  0  0  0  0  0  0
    1.7534    4.1603   -1.2134 C   0  0  0  0  0  0  0  0  0  0  0  0
    2.6475    3.4250   -0.3410 N   0  0  0  0  0  0  0  0  0  0  0  0
    2.8151    4.1426    0.8963 C   0  0  0  0  0  0  0  0  0  0  0  0
    3.3931    3.3078    2.0030 C   0  0  0  0  0  0  0  0  0  0  0  0
    2.2961    2.8910    2.9414 C   0  0  0  0  0  0  0  0  0  0  0  0
    2.5237    1.5422    3.5661 C   0  0  0  0  0  0  0  0  0  0  0  0
    4.1993    2.2092    1.5365 N   0  0  0  0  0  0  0  0  0  0  0  0
    5.4990    2.7094    1.0980 C   0  0  0  0  0  0  0  0  0  0  0  0
    6.2367    1.7192    0.2436 C   0  0  0  0  0  0  0  0  0  0  0  0
    5.9769    0.3401    0.6242 N   0  0  0  0  0  0  0  0  0  0  0  0
    5.8118   -0.5149   -0.5430 C   0  0  0  0  0  0  0  0  0  0  0  0
    0.5839   -0.5527    5.3949 H   0  0  0  0  0  0  0  0  0  0  0  0
    0.4665    0.9777    6.2904 H   0  0  0  0  0  0  0  0  0  0  0  0
   -1.1089    1.4788    3.9396 H   0  0  0  0  0  0  0  0  0  0  0  0
   -1.6713    1.1665    5.5886 H   0  0  0  0  0  0  0  0  0  0  0  0
   -1.1501   -1.0828    3.7220 H   0  0  0  0  0  0  0  0  0  0  0  0
   -3.2582    0.6913    3.8992 H   0  0  0  0  0  0  0  0  0  0  0  0
   -3.7164   -0.6133    5.0143 H   0  0  0  0  0  0  0  0  0  0  0  0
   -2.7273   -1.1395    2.1744 H   0  0  0  0  0  0  0  0  0  0  0  0
   -3.5997   -2.2957    3.3289 H   0  0  0  0  0  0  0  0  0  0  0  0
   -4.7751    0.1965    2.2577 H   0  0  0  0  0  0  0  0  0  0  0  0
   -6.3976   -1.1679    1.2741 H   0  0  0  0  0  0  0  0  0  0  0  0
   -5.7008   -2.6020    2.0413 H   0  0  0  0  0  0  0  0  0  0  0  0
   -4.2132   -2.9413    0.3832 H   0  0  0  0  0  0  0  0  0  0  0  0
   -3.6125   -1.2798    0.3426 H   0  0  0  0  0  0  0  0  0  0  0  0
   -6.3394   -1.9678   -0.8550 H   0  0  0  0  0  0  0  0  0  0  0  0
   -4.2384   -3.5777   -1.5024 H   0  0  0  0  0  0  0  0  0  0  0  0
   -5.2855   -2.8403   -2.8174 H   0  0  0  0  0  0  0  0  0  0  0  0
   -2.8316   -1.4855   -1.6078 H   0  0  0  0  0  0  0  0  0  0  0  0
   -3.6632   -1.1459   -3.2276 H   0  0  0  0  0  0  0  0  0  0  0  0
   -1.9260   -4.0267   -4.5291 H   0  0  0  0  0  0  0  0  0  0  0  0
   -0.2825   -3.0719   -5.6182 H   0  0  0  0  0  0  0  0  0  0  0  0
    0.0716   -4.6199   -4.7803 H   0  0  0  0  0  0  0  0  0  0  0  0
    1.3107   -1.9200   -4.5203 H   0  0  0  0  0  0  0  0  0  0  0  0
    0.6942   -2.4241   -2.9349 H   0  0  0  0  0  0  0  0  0  0  0  0
    2.2639   -4.0426   -2.8332 H   0  0  0  0  0  0  0  0  0  0  0  0
    3.9629   -4.1729   -4.5797 H   0  0  0  0  0  0  0  0  0  0  0  0
    2.9583   -3.0400   -5.5402 H   0  0  0  0  0  0  0  0  0  0  0  0
    4.3093   -0.1292   -3.9038 H   0  0  0  0  0  0  0  0  0  0  0  0
    5.5636   -1.0311   -3.0293 H   0  0  0  0  0  0  0  0  0  0  0  0
    2.6984   -1.0164   -1.9136 H   0  0  0  0  0  0  0  0  0  0  0  0
    3.6245    0.5077   -1.8520 H   0  0  0  0  0  0  0  0  0  0  0  0
    3.8243   -0.6020    0.1869 H   0  0  0  0  0  0  0  0  0  0  0  0
    5.3972   -2.9025   -0.2766 H   0  0  0  0  0  0  0  0  0  0  0  0
    3.9349   -3.0982   -1.3068 H   0  0  0  0  0  0  0  0  0  0  0  0
    3.7322   -2.2942    1.5202 H   0  0  0  0  0  0  0  0  0  0  0  0
    2.0106   -2.9755   -0.6986 H   0  0  0  0  0  0  0  0  0  0  0  0
    1.9206   -4.1523    0.6287 H   0  0  0  0  0  0  0  0  0  0  0  0
    1.9047   -1.5025    1.8017 H   0  0  0  0  0  0  0  0  0  0  0  0
    0.6269   -2.7426    1.8251 H   0  0  0  0  0  0  0  0  0  0  0  0
    0.6341   -1.4294   -0.7139 H   0  0  0  0  0  0  0  0  0  0  0  0
   -0.1664   -0.0534    1.7841 H   0  0  0  0  0  0  0  0  0  0  0  0
    1.3352    0.3788    0.7905 H   0  0  0  0  0  0  0  0  0  0  0  0
   -1.3601    0.2207   -0.5073 H   0  0  0  0  0  0  0  0  0  0  0  0
   -0.8410    3.0019    0.1418 H   0  0  0  0  0  0  0  0  0  0  0  0
   -0.7229    1.9950    1.6286 H   0  0  0  0  0  0  0  0  0  0  0  0
   -2.9075    0.9972    0.1476 H   0  0  0  0  0  0  0  0  0  0  0  0
   -2.9603    1.7352    1.7568 H   0  0  0  0  0  0  0  0  0  0  0  0
   -4.2226    4.0362   -1.4925 H   0  0  0  0  0  0  0  0  0  0  0  0
   -4.0364    5.0793   -0.0740 H   0  0  0  0  0  0  0  0  0  0  0  0
   -6.1116    4.6233    0.3627 H   0  0  0  0  0  0  0  0  0  0  0  0
   -6.7565    3.7990   -1.6199 H   0  0  0  0  0  0  0  0  0  0  0  0
   -7.3547    2.7061   -0.3226 H   0  0  0  0  0  0  0  0  0  0  0  0
   -4.7070    2.0714   -1.7535 H   0  0  0  0  0  0  0  0  0  0  0  0
   -6.2633    1.8095   -2.5603 H   0  0  0  0  0  0  0  0  0  0  0  0
   -5.6950    0.8039    0.1091 H   0  0  0  0  0  0  0  0  0  0  0  0
   -4.1657    0.0541   -1.6564 H   0  0  0  0  0  0  0  0  0  0  0  0
   -5.5907   -0.4017   -2.6048 H   0  0  0  0  0  0  0  0  0  0  0  0
    0.1530    0.5152   -2.1731 H   0  0  0  0  0  0  0  0  0  0  0  0
    1.3544    1.2857   -1.0352 H   0  0  0  0  0  0  0  0  0  0  0  0
   -0.8319    2.6081   -2.4874 H   0  0  0  0  0  0  0  0  0  0  0  0
    0.8280    3.8682   -3.1537 H   0  0  0  0  0  0  0  0  0  0  0  0
    1.8496    2.5005   -2.6336 H   0  0  0  0  0  0  0  0  0  0  0  0
    0.9093    4.6326   -0.6500 H   0  0  0  0  0  0  0  0  0  0  0  0
    2.3470    4.9276   -1.7346 H   0  0  0  0  0  0  0  0  0  0  0  0
    3.5264    3.2776   -0.8688 H   0  0  0  0  0  0  0  0  0  0  0  0
    1.8021    4.5032    1.2074 H   0  0  0  0  0  0  0  0  0  0  0  0
    3.4123    5.0506    0.6881 H   0  0  0  0  0  0  0  0  0  0  0  0
    4.0762    3.9769    2.5850 H   0  0  0  0  0  0  0  0  0  0  0  0
    1.3500    2.9230    2.3819 H   0  0  0  0  0  0  0  0  0  0  0  0
    2.1918    3.6234    3.7723 H   0  0  0  0  0  0  0  0  0  0  0  0
    3.4373    1.5614    4.1780 H   0  0  0  0  0  0  0  0  0  0  0  0
    2.6142    0.7406    2.7905 H   0  0  0  0  0  0  0  0  0  0  0  0
    4.4089    1.6166    2.3833 H   0  0  0  0  0  0  0  0  0  0  0  0
    6.0981    2.9297    2.0174 H   0  0  0  0  0  0  0  0  0  0  0  0
    5.4167    3.6719    0.5588 H   0  0  0  0  0  0  0  0  0  0  0  0
    7.3208    1.9224    0.2691 H   0  0  0  0  0  0  0  0  0  0  0  0
    5.8789    1.8166   -0.8088 H   0  0  0  0  0  0  0  0  0  0  0  0
    6.7944    0.0397    1.2178 H   0  0  0  0  0  0  0  0  0  0  0  0
    6.4828   -1.3940   -0.3818 H   0  0  0  0  0  0  0  0  0  0  0  0
    6.1190    0.0872   -1.4159 H   0  0  0  0  0  0  0  0  0  0  0  0
  1  2  2  0
  2  3  1  0
  3  4  1  0
  4  5  1  0
  5  6  1  0
  6  7  1  0
  7  8  1  0
  8  9  1  0
  9 10  1  0
 10 11  1  0
 11 12  1  0
 12 13  1  0
 13 14  1  0
 14 15  2  0
 14 16  1  0
 16 17  1  0
 17 18  1  0
 18 19  1  0
 19 20  1  0
 20 21  1  0
 21 22  2  0
 21 23  1  0
 23 24  1  0
 24 25  1  0
 25 26  1  0
 26 27  1  0
 27 28  1  0
 28 29  1  0
 29 30  1  0
 30 31  1  0
 31 32  1  0
 32 33  1  0
 33 34  1  0
 34 35  1  0
 35 36  2  0
 35 37  1  0
 37 38  1  0
 38 39  1  0
 39 40  1  0
 40 41  1  0
 41 42  1  0
 32 43  1  0
 43 44  1  0
 44 45  1  0
 45 46  1  0
 46 47  1  0
 47 48  1  0
 48 49  1  0
 49 50  1  0
 50 51  1  0
 49 52  1  0
 52 53  1  0
 53 54  1  0
 54 55  1  0
 55 56  1  0
 51  2  1  0
 42 11  1  0
 56 25  1  0
  3 57  1  0
  3 58  1  0
  4 59  1  0
  4 60  1  0
  5 61  1  0
  6 62  1  0
  6 63  1  0
  7 64  1  0
  7 65  1  0
  8 66  1  0
  9 67  1  0
  9 68  1  0
 10 69  1  0
 10 70  1  0
 11 71  1  0
 12 72  1  0
 12 73  1  0
 13 74  1  0
 13 75  1  0
 16 76  1  0
 17 77  1  0
 17 78  1  0
 18 79  1  0
 18 80  1  0
 19 81  1  0
 20 82  1  0
 20 83  1  0
 23 84  1  0
 23 85  1  0
 24 86  1  0
 24 87  1  0
 25 88  1  0
 26 89  1  0
 26 90  1  0
 27 91  1  0
 28 92  1  0
 28 93  1  0
 29 94  1  0
 29 95  1  0
 30 96  1  0
 31 97  1  0
 31 98  1  0
 32 99  1  0
 33100  1  0
 33101  1  0
 34102  1  0
 34103  1  0
 37104  1  0
 37105  1  0
 38106  1  0
 39107  1  0
 39108  1  0
 40109  1  0
 40110  1  0
 41111  1  0
 42112  1  0
 42113  1  0
 43114  1  0
 43115  1  0
 44116  1  0
 45117  1  0
 45118  1  0
 46119  1  0
 46120  1  0
 47121  1  0
 48122  1  0
 48123  1  0
 49124  1  0
 50125  1  0
 50126  1  0
 51127  1  0
 51128  1  0
 52129  1  0
 53130  1  0
 53131  1  0
 54132  1  0
 54133  1  0
 55134  1  0
 56135  1  0
 56136  1  0
M  END
