
     RDKit          3D

140146  0  0  0  0  0  0  0  0999 V2000
   -4.3947    2.6736   -1.0005 O   0  0  0  0  0  0  0  0  0  0  0  0
   -3.4578    3.4318   -0.6984 C   0  0  0  0  0  0  0  0  0  0  0  0
   -3.9462    3.7196    0.6887 C   0  0  0  0  0  0  0  0  0  0  0  0
   -3.1576    3.0593    1.6946 N   0  0  0  0  0  0  0  0  0  0  0  0
   -2.5027    4.0005    2.6004 C   0  0  0  0  0  0  0  0  0  0  0  0
   -2.4863    3.5209    4.0205 C   0  0  0  0  0  0  0  0  0  0  0  0
   -1.2955    2.8088    4.3929 N   0  0  0  0  0  0  0  0  0  0  0  0
   -1.6905    1.6268    5.0672 C   0  0  0  0  0  0  0  0  0  0  0  0
   -0.5513    0.8159    5.6356 C   0  0  0  0  0  0  0  0  0  0  0  0
    0.6986    1.1345    6.0224 O   0  0  0  0  0  0  0  0  0  0  0  0
    1.4094    0.2551    5.3341 C   0  0  0  0  0  0  0  0  0  0  0  0
    0.8678   -0.9653    5.7475 C   0  0  0  0  0  0  0  0  0  0  0  0
   -0.4381   -0.5405    6.0101 C   0  0  0  0  0  0  0  0  0  0  0  0
   -0.5418   -1.9528    6.4177 C   0  0  0  0  0  0  0  0  0  0  0  0
    0.5871   -1.8645    6.9918 O   0  0  0  0  0  0  0  0  0  0  0  0
   -0.8489   -3.3030    6.7204 N   0  0  0  0  0  0  0  0  0  0  0  0
   -1.1017   -4.7024    6.3859 C   0  0  0  0  0  0  0  0  0  0  0  0
   -2.0782   -4.8377    5.2304 C   0  0  0  0  0  0  0  0  0  0  0  0
   -2.0947   -3.5669    4.5086 N   0  0  0  0  0  0  0  0  0  0  0  0
   -2.7914   -3.6588    3.2515 C   0  0  0  0  0  0  0  0  0  0  0  0
   -2.0512   -3.0379    2.1248 C   0  0  0  0  0  0  0  0  0  0  0  0
   -1.2440   -3.9916    1.8880 O   0  0  0  0  0  0  0  0  0  0  0  0
   -1.2624   -2.1609    1.2375 C   0  0  0  0  0  0  0  0  0  0  0  0
   -1.2973   -3.3354    0.4787 C   0  0  0  0  0  0  0  0  0  0  0  0
   -0.4174   -2.9792   -0.5450 C   0  0  0  0  0  0  0  0  0  0  0  0
    0.3687   -2.0907    0.0430 O   0  0  0  0  0  0  0  0  0  0  0  0
   -0.5297   -1.1963    0.5027 C   0  0  0  0  0  0  0  0  0  0  0  0
   -0.6036    0.2974    0.2749 C   0  0  0  0  0  0  0  0  0  0  0  0
    0.2892    1.0107    1.1877 N   0  0  0  0  0  0  0  0  0  0  0  0
    0.4731    2.3561    0.7125 C   0  0  0  0  0  0  0  0  0  0  0  0
    1.5568    2.3218   -0.3289 C   0  0  0  0  0  0  0  0  0  0  0  0
    2.2131    3.5623   -0.5645 N   0  0  0  0  0  0  0  0  0  0  0  0
    1.4226    4.6072   -1.1164 C   0  0  0  0  0  0  0  0  0  0  0  0
    0.8481    4.2737   -2.7745 S   0  0  0  0  0  0  0  0  0  0  0  0
    1.3527    5.3002   -3.7513 O   0  0  0  0  0  0  0  0  0  0  0  0
    1.7049    3.0991   -3.2261 O   0  0  0  0  0  0  0  0  0  0  0  0
   -0.8660    3.9482   -2.8661 C   0  0  0  0  0  0  0  0  0  0  0  0
   -1.6617    2.8324   -2.5667 C   0  0  0  0  0  0  0  0  0  0  0  0
   -2.7921    3.5068   -2.0542 C   0  0  0  0  0  0  0  0  0  0  0  0
   -2.8910    4.3826   -3.1984 C   0  0  0  0  0  0  0  0  0  0  0  0
   -3.7991    4.5880   -4.4084 C   0  0  0  0  0  0  0  0  0  0  0  0
   -3.3169    3.8940   -5.5678 N   0  0  0  0  0  0  0  0  0  0  0  0
   -2.3227    4.5890   -6.3244 C   0  0  0  0  0  0  0  0  0  0  0  0
   -1.6735    3.5813   -7.2627 C   0  0  0  0  0  0  0  0  0  0  0  0
   -0.2934    3.4113   -6.8715 N   0  0  0  0  0  0  0  0  0  0  0  0
    0.3021    2.2496   -7.5302 C   0  0  0  0  0  0  0  0  0  0  0  0
    0.3701    1.0600   -6.5986 C   0  0  0  0  0  0  0  0  0  0  0  0
   -0.6033    0.1941   -6.2520 O   0  0  0  0  0  0  0  0  0  0  0  0
   -0.0597   -0.9705   -6.5699 C   0  0  0  0  0  0  0  0  0  0  0  0
    1.1454   -0.9514   -5.8657 C   0  0  0  0  0  0  0  0  0  0  0  0
    1.3538    0.4303   -5.7951 C   0  0  0  0  0  0  0  0  0  0  0  0
    2.4280   -0.0810   -4.9203 C   0  0  0  0  0  0  0  0  0  0  0  0
    1.5901   -0.8877   -4.4057 O   0  0  0  0  0  0  0  0  0  0  0  0
    3.4149   -0.0957   -3.8090 C   0  0  0  0  0  0  0  0  0  0  0  0
    3.4512   -1.4959   -3.2361 C   0  0  0  0  0  0  0  0  0  0  0  0
    4.4372   -1.5842   -2.1608 N   0  0  0  0  0  0  0  0  0  0  0  0
    4.0824   -0.6654   -1.1144 C   0  0  0  0  0  0  0  0  0  0  0  0
    4.7162   -0.9593    0.2119 C   0  0  0  0  0  0  0  0  0  0  0  0
    3.7831   -0.8063    1.3268 N   0  0  0  0  0  0  0  0  0  0  0  0
    4.4340   -0.3588    2.5298 C   0  0  0  0  0  0  0  0  0  0  0  0
    3.5095    0.4466    3.4343 C   0  0  0  0  0  0  0  0  0  0  0  0
    2.4681   -0.6838    4.3345 S   0  0  0  0  0  0  0  0  0  0  0  0
    3.3992   -1.5603    5.1359 O   0  0  0  0  0  0  0  0  0  0  0  0
    1.7461   -1.4631    3.2742 O   0  0  0  0  0  0  0  0  0  0  0  0
    0.5491   -2.3951   -7.3664 S   0  0  0  0  0  0  0  0  0  0  0  0
   -0.4966   -2.7831   -8.3875 O   0  0  0  0  0  0  0  0  0  0  0  0
    1.8045   -2.1484   -8.1323 O   0  0  0  0  0  0  0  0  0  0  0  0
    0.6632   -3.7036   -6.2682 N   0  0  0  0  0  0  0  0  0  0  0  0
   -0.5711   -4.4355   -6.1421 C   0  0  0  0  0  0  0  0  0  0  0  0
   -0.3647   -5.4564   -5.0345 C   0  0  0  0  0  0  0  0  0  0  0  0
   -1.1972   -5.0554   -3.9321 N   0  0  0  0  0  0  0  0  0  0  0  0
   -0.6450   -3.9150   -3.2025 C   0  0  0  0  0  0  0  0  0  0  0  0
   -1.3718   -4.0081   -1.5727 S   0  0  0  0  0  0  0  0  0  0  0  0
   -1.2822   -5.4419   -1.1601 O   0  0  0  0  0  0  0  0  0  0  0  0
   -2.7870   -3.5321   -1.7178 O   0  0  0  0  0  0  0  0  0  0  0  0
   -1.7378    4.9693   -2.8978 O   0  0  0  0  0  0  0  0  0  0  0  0
   -3.8663    4.8219    0.8684 H   0  0  0  0  0  0  0  0  0  0  0  0
   -5.0174    3.4820    0.7213 H   0  0  0  0  0  0  0  0  0  0  0  0
   -3.8031    2.4971    2.3035 H   0  0  0  0  0  0  0  0  0  0  0  0
   -3.1487    4.9147    2.5794 H   0  0  0  0  0  0  0  0  0  0  0  0
   -1.5105    4.2945    2.2288 H   0  0  0  0  0  0  0  0  0  0  0  0
   -2.5660    4.4083    4.6985 H   0  0  0  0  0  0  0  0  0  0  0  0
   -3.4172    2.9366    4.1978 H   0  0  0  0  0  0  0  0  0  0  0  0
   -0.5904    2.7124    3.6526 H   0  0  0  0  0  0  0  0  0  0  0  0
   -2.2639    1.0717    4.2821 H   0  0  0  0  0  0  0  0  0  0  0  0
   -2.4077    1.9439    5.8670 H   0  0  0  0  0  0  0  0  0  0  0  0
    1.0010   -1.8350    5.0908 H   0  0  0  0  0  0  0  0  0  0  0  0
    0.1264   -3.5154    7.0574 H   0  0  0  0  0  0  0  0  0  0  0  0
   -0.1761   -5.2255    6.0946 H   0  0  0  0  0  0  0  0  0  0  0  0
   -1.5241   -5.1694    7.2883 H   0  0  0  0  0  0  0  0  0  0  0  0
   -1.7693   -5.6510    4.5260 H   0  0  0  0  0  0  0  0  0  0  0  0
   -3.0962   -5.0732    5.5800 H   0  0  0  0  0  0  0  0  0  0  0  0
   -2.6657   -2.9181    5.1130 H   0  0  0  0  0  0  0  0  0  0  0  0
   -3.8059   -3.1954    3.2807 H   0  0  0  0  0  0  0  0  0  0  0  0
   -2.9692   -4.7221    2.9493 H   0  0  0  0  0  0  0  0  0  0  0  0
   -2.2780   -3.7571    0.2278 H   0  0  0  0  0  0  0  0  0  0  0  0
   -1.6078    0.7119    0.5048 H   0  0  0  0  0  0  0  0  0  0  0  0
   -0.4586    0.5925   -0.7736 H   0  0  0  0  0  0  0  0  0  0  0  0
   -0.1362    0.9341    2.1238 H   0  0  0  0  0  0  0  0  0  0  0  0
    0.8410    3.0165    1.5349 H   0  0  0  0  0  0  0  0  0  0  0  0
   -0.4409    2.8291    0.3265 H   0  0  0  0  0  0  0  0  0  0  0  0
    2.3342    1.6252    0.0788 H   0  0  0  0  0  0  0  0  0  0  0  0
    1.1435    1.8243   -1.2145 H   0  0  0  0  0  0  0  0  0  0  0  0
    2.6216    3.8975    0.3226 H   0  0  0  0  0  0  0  0  0  0  0  0
    0.5650    4.8386   -0.4633 H   0  0  0  0  0  0  0  0  0  0  0  0
    2.0474    5.5157   -1.1800 H   0  0  0  0  0  0  0  0  0  0  0  0
   -1.5623    1.7829   -2.8638 H   0  0  0  0  0  0  0  0  0  0  0  0
   -4.8000    4.1174   -4.2215 H   0  0  0  0  0  0  0  0  0  0  0  0
   -4.0654    5.6372   -4.5590 H   0  0  0  0  0  0  0  0  0  0  0  0
   -4.0572    3.5228   -6.1822 H   0  0  0  0  0  0  0  0  0  0  0  0
   -1.5832    5.1044   -5.6993 H   0  0  0  0  0  0  0  0  0  0  0  0
   -2.8525    5.3227   -6.9824 H   0  0  0  0  0  0  0  0  0  0  0  0
   -1.7611    3.8682   -8.3201 H   0  0  0  0  0  0  0  0  0  0  0  0
   -2.1466    2.5721   -7.1753 H   0  0  0  0  0  0  0  0  0  0  0  0
   -0.2930    3.1746   -5.8512 H   0  0  0  0  0  0  0  0  0  0  0  0
   -0.1550    2.0311   -8.5049 H   0  0  0  0  0  0  0  0  0  0  0  0
    1.3142    2.6155   -7.8219 H   0  0  0  0  0  0  0  0  0  0  0  0
    1.9805   -1.5781   -6.2017 H   0  0  0  0  0  0  0  0  0  0  0  0
    4.4319    0.1235   -4.1824 H   0  0  0  0  0  0  0  0  0  0  0  0
    3.1190    0.5724   -2.9663 H   0  0  0  0  0  0  0  0  0  0  0  0
    2.4779   -1.7846   -2.8093 H   0  0  0  0  0  0  0  0  0  0  0  0
    3.7537   -2.2332   -4.0054 H   0  0  0  0  0  0  0  0  0  0  0  0
    5.3929   -1.3396   -2.4819 H   0  0  0  0  0  0  0  0  0  0  0  0
    4.3993    0.3710   -1.3937 H   0  0  0  0  0  0  0  0  0  0  0  0
    2.9782   -0.7439   -0.9809 H   0  0  0  0  0  0  0  0  0  0  0  0
    5.5763   -0.2869    0.4206 H   0  0  0  0  0  0  0  0  0  0  0  0
    5.0945   -2.0112    0.1689 H   0  0  0  0  0  0  0  0  0  0  0  0
    3.3454   -1.7598    1.4333 H   0  0  0  0  0  0  0  0  0  0  0  0
    4.6990   -1.2721    3.1188 H   0  0  0  0  0  0  0  0  0  0  0  0
    5.3570    0.1915    2.2910 H   0  0  0  0  0  0  0  0  0  0  0  0
    2.9306    1.2008    2.8787 H   0  0  0  0  0  0  0  0  0  0  0  0
    4.1600    1.0045    4.1540 H   0  0  0  0  0  0  0  0  0  0  0  0
    1.4563   -4.3182   -6.5287 H   0  0  0  0  0  0  0  0  0  0  0  0
   -1.3867   -3.7319   -5.9112 H   0  0  0  0  0  0  0  0  0  0  0  0
   -0.7784   -4.9340   -7.1200 H   0  0  0  0  0  0  0  0  0  0  0  0
   -0.7317   -6.4376   -5.3865 H   0  0  0  0  0  0  0  0  0  0  0  0
    0.6920   -5.5644   -4.7498 H   0  0  0  0  0  0  0  0  0  0  0  0
   -1.2709   -5.8412   -3.2554 H   0  0  0  0  0  0  0  0  0  0  0  0
    0.4549   -3.9421   -3.1657 H   0  0  0  0  0  0  0  0  0  0  0  0
   -1.0041   -2.9612   -3.6602 H   0  0  0  0  0  0  0  0  0  0  0  0
  1  2  2  0
  2  3  1  0
  3  4  1  0
  4  5  1  0
  5  6  1  0
  6  7  1  0
  7  8  1  0
  8  9  1  0
  9 10  1  0
 10 11  1  0
 11 12  2  0
 12 13  1  0
 13 14  1  0
 14 15  2  0
 14 16  1  0
 16 17  1  0
 17 18  1  0
 18 19  1  0
 19 20  1  0
 20 21  1  0
 21 22  2  0
 21 23  1  0
 23 24  1  0
 24 25  2  0
 25 26  1  0
 26 27  1  0
 27 28  1  0
 28 29  1  0
 29 30  1  0
 30 31  1  0
 31 32  1  0
 32 33  1  0
 33 34  1  0
 34 35  2  0
 34 36  2  0
 34 37  1  0
 37 38  2  0
 38 39  1  0
 39 40  2  0
 40 41  1  0
 41 42  1  0
 42 43  1  0
 43 44  1  0
 44 45  1  0
 45 46  1  0
 46 47  1  0
 47 48  1  0
 48 49  1  0
 49 50  2  0
 50 51  1  0
 51 52  1  0
 52 53  2  0
 52 54  1  0
 54 55  1  0
 55 56  1  0
 56 57  1  0
 57 58  1  0
 58 59  1  0
 59 60  1  0
 60 61  1  0
 61 62  1  0
 62 63  2  0
 62 64  2  0
 49 65  1  0
 65 66  2  0
 65 67  2  0
 65 68  1  0
 68 69  1  0
 69 70  1  0
 70 71  1  0
 71 72  1  0
 72 73  1  0
 73 74  2  0
 73 75  2  0
 40 76  1  0
 39  2  1  0
 51 47  2  0
 13  9  2  0
 27 23  2  0
 76 37  1  0
 62 11  1  0
 73 25  1  0
  3 77  1  0
  3 78  1  0
  4 79  1  0
  5 80  1  0
  5 81  1  0
  6 82  1  0
  6 83  1  0
  7 84  1  0
  8 85  1  0
  8 86  1  0
 12 87  1  0
 16 88  1  0
 17 89  1  0
 17 90  1  0
 18 91  1  0
 18 92  1  0
 19 93  1  0
 20 94  1  0
 20 95  1  0
 24 96  1  0
 28 97  1  0
 28 98  1  0
 29 99  1  0
 30100  1  0
 30101  1  0
 31102  1  0
 31103  1  0
 32104  1  0
 33105  1  0
 33106  1  0
 38107  1  0
 41108  1  0
 41109  1  0
 42110  1  0
 43111  1  0
 43112  1  0
 44113  1  0
 44114  1  0
 45115  1  0
 46116  1  0
 46117  1  0
 50118  1  0
 54119  1  0
 54120  1  0
 55121  1  0
 55122  1  0
 56123  1  0
 57124  1  0
 57125  1  0
 58126  1  0
 58127  1  0
 59128  1  0
 60129  1  0
 60130  1  0
 61131  1  0
 61132  1  0
 68133  1  0
 69134  1  0
 69135  1  0
 70136  1  0
 70137  1  0
 71138  1  0
 72139  1  0
 72140  1  0
M  END
