
     RDKit          3D

120122  0  0  0  0  0  0  0  0999 V2000
   -1.4957   -6.3534    2.0033 N   0  0  0  0  0  0  0  0  0  0  0  0
   -1.9878   -5.3115    2.1694 C   0  0  0  0  0  0  0  0  0  0  0  0
   -2.7667   -4.0950    2.4606 C   0  0  0  0  0  0  0  0  0  0  0  0
   -2.1196   -3.3463    3.5793 C   0  0  0  0  0  0  0  0  0  0  0  0
   -1.4958   -2.1109    3.1890 N   0  0  0  0  0  0  0  0  0  0  0  0
   -0.9669   -1.4429    4.3483 C   0  0  0  0  0  0  0  0  0  0  0  0
   -1.2505    0.0321    4.3819 C   0  0  0  0  0  0  0  0  0  0  0  0
   -0.0545    0.8353    4.1389 N   0  0  0  0  0  0  0  0  0  0  0  0
   -0.2180    2.1816    4.6843 C   0  0  0  0  0  0  0  0  0  0  0  0
    0.7138    3.1573    3.9644 C   0  0  0  0  0  0  0  0  0  0  0  0
    0.0463    3.4831    2.6681 C   0  0  0  0  0  0  0  0  0  0  0  0
    0.4578    4.7720    2.0388 C   0  0  0  0  0  0  0  0  0  0  0  0
    0.6461    4.6541    0.5943 N   0  0  0  0  0  0  0  0  0  0  0  0
   -0.6157    4.6068   -0.1157 C   0  0  0  0  0  0  0  0  0  0  0  0
   -0.3200    4.5431   -1.5888 C   0  0  0  0  0  0  0  0  0  0  0  0
   -1.1413    3.6040   -2.3068 N   0  0  0  0  0  0  0  0  0  0  0  0
   -0.4252    2.9810   -3.3890 C   0  0  0  0  0  0  0  0  0  0  0  0
   -1.3059    2.3373   -4.4156 C   0  0  0  0  0  0  0  0  0  0  0  0
   -2.1635    1.2276   -3.9057 C   0  0  0  0  0  0  0  0  0  0  0  0
   -3.4410    1.2453   -4.6419 C   0  0  0  0  0  0  0  0  0  0  0  0
   -4.4468    1.4244   -5.2076 N   0  0  0  0  0  0  0  0  0  0  0  0
   -1.5635   -0.1433   -4.0386 C   0  0  0  0  0  0  0  0  0  0  0  0
   -2.4634   -1.1207   -4.7539 C   0  0  0  0  0  0  0  0  0  0  0  0
   -3.4221   -1.7261   -3.8330 N   0  0  0  0  0  0  0  0  0  0  0  0
   -3.0127   -3.0876   -3.5065 C   0  0  0  0  0  0  0  0  0  0  0  0
   -3.6765   -3.6128   -2.2713 C   0  0  0  0  0  0  0  0  0  0  0  0
   -2.7301   -3.6364   -1.1830 N   0  0  0  0  0  0  0  0  0  0  0  0
   -3.2636   -4.1998    0.0306 C   0  0  0  0  0  0  0  0  0  0  0  0
   -2.8358   -3.3070    1.1814 C   0  0  0  0  0  0  0  0  0  0  0  0
   -3.8242   -2.1768    1.2454 C   0  0  0  0  0  0  0  0  0  0  0  0
   -3.5222   -1.2252    0.1817 N   0  0  0  0  0  0  0  0  0  0  0  0
   -3.3200    0.0994    0.6962 C   0  0  0  0  0  0  0  0  0  0  0  0
   -1.9956    0.7038    0.3715 C   0  0  0  0  0  0  0  0  0  0  0  0
   -0.9492   -0.2288    0.0728 N   0  0  0  0  0  0  0  0  0  0  0  0
    0.1809    0.4967   -0.4342 C   0  0  0  0  0  0  0  0  0  0  0  0
    1.5159   -0.0913    0.0086 C   0  0  0  0  0  0  0  0  0  0  0  0
    1.9008   -1.1599   -0.9743 C   0  0  0  0  0  0  0  0  0  0  0  0
    1.7427   -0.7656   -2.3502 N   0  0  0  0  0  0  0  0  0  0  0  0
    0.8191   -1.6817   -3.0165 C   0  0  0  0  0  0  0  0  0  0  0  0
    0.5369   -1.2744   -4.4296 C   0  0  0  0  0  0  0  0  0  0  0  0
   -0.2357   -0.0807   -4.5737 N   0  0  0  0  0  0  0  0  0  0  0  0
    2.4772    1.0587    0.0621 C   0  0  0  0  0  0  0  0  0  0  0  0
    2.9012    1.4152   -1.2794 C   0  0  0  0  0  0  0  0  0  0  0  0
    3.2695    1.9790   -2.2109 N   0  0  0  0  0  0  0  0  0  0  0  0
    3.6955    0.7928    0.9158 C   0  0  0  0  0  0  0  0  0  0  0  0
    4.4059    2.0691    0.9749 N   0  0  0  0  0  0  0  0  0  0  0  0
    5.1423    2.2407    2.1925 C   0  0  0  0  0  0  0  0  0  0  0  0
    4.2929    2.4375    3.4091 C   0  0  0  0  0  0  0  0  0  0  0  0
    3.0420    3.1376    3.1250 N   0  0  0  0  0  0  0  0  0  0  0  0
    2.0152    2.4294    3.8375 C   0  0  0  0  0  0  0  0  0  0  0  0
    2.5268    2.2276    5.2055 C   0  0  0  0  0  0  0  0  0  0  0  0
    2.9699    2.0619    6.2724 N   0  0  0  0  0  0  0  0  0  0  0  0
   -3.7933   -4.3993    2.7488 H   0  0  0  0  0  0  0  0  0  0  0  0
   -2.8663   -3.1510    4.3845 H   0  0  0  0  0  0  0  0  0  0  0  0
   -1.3341   -3.9810    4.0483 H   0  0  0  0  0  0  0  0  0  0  0  0
   -0.7070   -2.3109    2.5305 H   0  0  0  0  0  0  0  0  0  0  0  0
   -1.3347   -1.9583    5.2717 H   0  0  0  0  0  0  0  0  0  0  0  0
    0.1453   -1.5655    4.3827 H   0  0  0  0  0  0  0  0  0  0  0  0
   -2.0869    0.3444    3.7420 H   0  0  0  0  0  0  0  0  0  0  0  0
   -1.5556    0.2772    5.4309 H   0  0  0  0  0  0  0  0  0  0  0  0
    0.7126    0.3406    4.6669 H   0  0  0  0  0  0  0  0  0  0  0  0
    0.0606    2.1678    5.7509 H   0  0  0  0  0  0  0  0  0  0  0  0
   -1.2720    2.5008    4.5832 H   0  0  0  0  0  0  0  0  0  0  0  0
    0.8025    4.0737    4.5827 H   0  0  0  0  0  0  0  0  0  0  0  0
    0.1662    2.6210    1.9986 H   0  0  0  0  0  0  0  0  0  0  0  0
   -1.0520    3.5535    2.8767 H   0  0  0  0  0  0  0  0  0  0  0  0
   -0.3256    5.5627    2.1626 H   0  0  0  0  0  0  0  0  0  0  0  0
    1.3850    5.2094    2.4336 H   0  0  0  0  0  0  0  0  0  0  0  0
    1.2040    5.4463    0.2330 H   0  0  0  0  0  0  0  0  0  0  0  0
   -1.1692    5.5328    0.1740 H   0  0  0  0  0  0  0  0  0  0  0  0
   -1.2440    3.7588    0.2069 H   0  0  0  0  0  0  0  0  0  0  0  0
   -0.5659    5.5546   -2.0014 H   0  0  0  0  0  0  0  0  0  0  0  0
    0.7692    4.4089   -1.7834 H   0  0  0  0  0  0  0  0  0  0  0  0
   -2.0225    4.0136   -2.6753 H   0  0  0  0  0  0  0  0  0  0  0  0
    0.1156    3.8076   -3.9179 H   0  0  0  0  0  0  0  0  0  0  0  0
    0.3568    2.2780   -3.0716 H   0  0  0  0  0  0  0  0  0  0  0  0
   -0.6706    2.0676   -5.2791 H   0  0  0  0  0  0  0  0  0  0  0  0
   -1.9917    3.1395   -4.7908 H   0  0  0  0  0  0  0  0  0  0  0  0
   -2.4349    1.4837   -2.8501 H   0  0  0  0  0  0  0  0  0  0  0  0
   -1.4681   -0.5397   -2.9950 H   0  0  0  0  0  0  0  0  0  0  0  0
   -1.8683   -1.9578   -5.1789 H   0  0  0  0  0  0  0  0  0  0  0  0
   -2.9771   -0.6632   -5.6371 H   0  0  0  0  0  0  0  0  0  0  0  0
   -4.3537   -1.7478   -4.3237 H   0  0  0  0  0  0  0  0  0  0  0  0
   -3.2665   -3.6964   -4.4109 H   0  0  0  0  0  0  0  0  0  0  0  0
   -1.9243   -3.1676   -3.3815 H   0  0  0  0  0  0  0  0  0  0  0  0
   -4.0668   -4.6318   -2.5207 H   0  0  0  0  0  0  0  0  0  0  0  0
   -4.5705   -2.9968   -2.0625 H   0  0  0  0  0  0  0  0  0  0  0  0
   -1.9393   -4.2533   -1.4857 H   0  0  0  0  0  0  0  0  0  0  0  0
   -3.0066   -5.2567    0.1863 H   0  0  0  0  0  0  0  0  0  0  0  0
   -4.3785   -4.1481   -0.0494 H   0  0  0  0  0  0  0  0  0  0  0  0
   -1.8041   -2.9887    0.9512 H   0  0  0  0  0  0  0  0  0  0  0  0
   -4.8372   -2.6347    1.1147 H   0  0  0  0  0  0  0  0  0  0  0  0
   -3.8533   -1.6617    2.2202 H   0  0  0  0  0  0  0  0  0  0  0  0
   -4.3828   -1.1802   -0.4263 H   0  0  0  0  0  0  0  0  0  0  0  0
   -3.4627    0.0469    1.8055 H   0  0  0  0  0  0  0  0  0  0  0  0
   -4.1053    0.8214    0.3543 H   0  0  0  0  0  0  0  0  0  0  0  0
   -1.6787    1.3009    1.2378 H   0  0  0  0  0  0  0  0  0  0  0  0
   -2.0975    1.3873   -0.4812 H   0  0  0  0  0  0  0  0  0  0  0  0
   -1.2985   -0.9753   -0.5720 H   0  0  0  0  0  0  0  0  0  0  0  0
    0.1920    0.4583   -1.5313 H   0  0  0  0  0  0  0  0  0  0  0  0
    0.1207    1.5561   -0.1472 H   0  0  0  0  0  0  0  0  0  0  0  0
    1.3461   -0.5683    0.9937 H   0  0  0  0  0  0  0  0  0  0  0  0
    2.9398   -1.4986   -0.7350 H   0  0  0  0  0  0  0  0  0  0  0  0
    1.2536   -2.0473   -0.7578 H   0  0  0  0  0  0  0  0  0  0  0  0
    2.6729   -0.9383   -2.8167 H   0  0  0  0  0  0  0  0  0  0  0  0
    1.3748   -2.6530   -3.0801 H   0  0  0  0  0  0  0  0  0  0  0  0
   -0.0738   -1.8961   -2.4134 H   0  0  0  0  0  0  0  0  0  0  0  0
    0.1431   -2.1538   -4.9594 H   0  0  0  0  0  0  0  0  0  0  0  0
    1.5319   -1.0629   -4.8996 H   0  0  0  0  0  0  0  0  0  0  0  0
   -0.3375    0.0841   -5.6092 H   0  0  0  0  0  0  0  0  0  0  0  0
    1.9368    1.8962    0.5726 H   0  0  0  0  0  0  0  0  0  0  0  0
    3.4543    0.3973    1.9116 H   0  0  0  0  0  0  0  0  0  0  0  0
    4.3438    0.0273    0.4247 H   0  0  0  0  0  0  0  0  0  0  0  0
    3.7739    2.8784    0.8463 H   0  0  0  0  0  0  0  0  0  0  0  0
    5.7886    3.1225    2.0778 H   0  0  0  0  0  0  0  0  0  0  0  0
    5.8262    1.3767    2.3850 H   0  0  0  0  0  0  0  0  0  0  0  0
    4.9083    2.9637    4.1630 H   0  0  0  0  0  0  0  0  0  0  0  0
    4.1044    1.4210    3.8390 H   0  0  0  0  0  0  0  0  0  0  0  0
    3.1415    4.0763    3.5949 H   0  0  0  0  0  0  0  0  0  0  0  0
    1.8523    1.4416    3.3842 H   0  0  0  0  0  0  0  0  0  0  0  0
  1  2  3  0
  2  3  1  0
  3  4  1  0
  4  5  1  0
  5  6  1  0
  6  7  1  0
  7  8  1  0
  8  9  1  0
  9 10  1  0
 10 11  1  0
 11 12  1  0
 12 13  1  0
 13 14  1  0
 14 15  1  0
 15 16  1  0
 16 17  1  0
 17 18  1  0
 18 19  1  0
 19 20  1  0
 20 21  3  0
 19 22  1  0
 22 23  1  0
 23 24  1  0
 24 25  1  0
 25 26  1  0
 26 27  1  0
 27 28  1  0
 28 29  1  0
 29 30  1  0
 30 31  1  0
 31 32  1  0
 32 33  1  0
 33 34  1  0
 34 35  1  0
 35 36  1  0
 36 37  1  0
 37 38  1  0
 38 39  1  0
 39 40  1  0
 40 41  1  0
 36 42  1  0
 42 43  1  0
 43 44  3  0
 42 45  1  0
 45 46  1  0
 46 47  1  0
 47 48  1  0
 48 49  1  0
 49 50  1  0
 50 51  1  0
 51 52  3  0
 29  3  1  0
 50 10  1  0
 41 22  1  0
  3 53  1  0
  4 54  1  0
  4 55  1  0
  5 56  1  0
  6 57  1  0
  6 58  1  0
  7 59  1  0
  7 60  1  0
  8 61  1  0
  9 62  1  0
  9 63  1  0
 10 64  1  0
 11 65  1  0
 11 66  1  0
 12 67  1  0
 12 68  1  0
 13 69  1  0
 14 70  1  0
 14 71  1  0
 15 72  1  0
 15 73  1  0
 16 74  1  0
 17 75  1  0
 17 76  1  0
 18 77  1  0
 18 78  1  0
 19 79  1  0
 22 80  1  0
 23 81  1  0
 23 82  1  0
 24 83  1  0
 25 84  1  0
 25 85  1  0
 26 86  1  0
 26 87  1  0
 27 88  1  0
 28 89  1  0
 28 90  1  0
 29 91  1  0
 30 92  1  0
 30 93  1  0
 31 94  1  0
 32 95  1  0
 32 96  1  0
 33 97  1  0
 33 98  1  0
 34 99  1  0
 35100  1  0
 35101  1  0
 36102  1  0
 37103  1  0
 37104  1  0
 38105  1  0
 39106  1  0
 39107  1  0
 40108  1  0
 40109  1  0
 41110  1  0
 42111  1  0
 45112  1  0
 45113  1  0
 46114  1  0
 47115  1  0
 47116  1  0
 48117  1  0
 48118  1  0
 49119  1  0
 50120  1  0
M  END
