
     RDKit          3D

128130  0  0  0  0  0  0  0  0999 V2000
   -4.1098   -1.2993    2.6514 O   0  0  0  0  0  0  0  0  0  0  0  0
   -4.0049   -1.3613    3.2186 C   0  0  0  0  0  0  0  0  0  0  0  0
   -4.4018   -2.7895    3.3163 C   0  0  0  0  0  0  0  0  0  0  0  0
   -4.8485   -3.2825    2.0164 N   0  0  0  0  0  0  0  0  0  0  0  0
   -4.5776   -4.6966    1.9627 C   0  0  0  0  0  0  0  0  0  0  0  0
   -4.7277   -5.2883    0.5915 C   0  0  0  0  0  0  0  0  0  0  0  0
   -5.0217   -4.3194   -0.4318 N   0  0  0  0  0  0  0  0  0  0  0  0
   -3.9452   -4.2271   -1.3836 C   0  0  0  0  0  0  0  0  0  0  0  0
   -2.8924   -3.5731   -0.7775 O   0  0  0  0  0  0  0  0  0  0  0  0
   -2.4093   -2.4951   -1.5187 C   0  0  0  0  0  0  0  0  0  0  0  0
   -1.3066   -1.8746   -0.6687 C   0  0  0  0  0  0  0  0  0  0  0  0
   -0.5554   -2.9412   -0.0302 N   0  0  0  0  0  0  0  0  0  0  0  0
   -0.7849   -2.9016    1.3926 C   0  0  0  0  0  0  0  0  0  0  0  0
    0.1723   -3.7542    2.1751 C   0  0  0  0  0  0  0  0  0  0  0  0
    0.7164   -4.8511    1.4161 N   0  0  0  0  0  0  0  0  0  0  0  0
    2.0247   -5.1528    1.9744 C   0  0  0  0  0  0  0  0  0  0  0  0
    3.1173   -4.6623    1.0740 C   0  0  0  0  0  0  0  0  0  0  0  0
    4.0249   -4.8762    1.8442 O   0  0  0  0  0  0  0  0  0  0  0  0
    3.8627   -3.8808    0.0350 C   0  0  0  0  0  0  0  0  0  0  0  0
    3.1886   -4.4273   -1.6804 Br  0  0  0  0  0  0  0  0  0  0  0  0
    3.6371   -2.3989    0.2968 C   0  0  0  0  0  0  0  0  0  0  0  0
    3.5911   -1.5929   -0.9711 C   0  0  0  0  0  0  0  0  0  0  0  0
    2.7976   -0.3827   -0.7690 N   0  0  0  0  0  0  0  0  0  0  0  0
    3.0833    0.6041   -1.7864 C   0  0  0  0  0  0  0  0  0  0  0  0
    3.1689    1.9470   -1.1133 C   0  0  0  0  0  0  0  0  0  0  0  0
    3.7251    2.9649   -1.9940 N   0  0  0  0  0  0  0  0  0  0  0  0
    3.2834    4.2485   -1.4533 C   0  0  0  0  0  0  0  0  0  0  0  0
    2.1264    4.8120   -2.2402 C   0  0  0  0  0  0  0  0  0  0  0  0
    0.8983    4.3256   -1.8246 O   0  0  0  0  0  0  0  0  0  0  0  0
    0.5709    4.9656   -0.6278 C   0  0  0  0  0  0  0  0  0  0  0  0
   -0.8227    4.7609   -0.3097 N   0  0  0  0  0  0  0  0  0  0  0  0
   -1.0886    3.3772    0.0607 C   0  0  0  0  0  0  0  0  0  0  0  0
   -1.9967    3.2813    1.2633 C   0  0  0  0  0  0  0  0  0  0  0  0
   -1.3612    2.5440    2.3291 N   0  0  0  0  0  0  0  0  0  0  0  0
   -2.3120    1.9807    3.2711 C   0  0  0  0  0  0  0  0  0  0  0  0
   -2.3248    0.4811    3.2722 C   0  0  0  0  0  0  0  0  0  0  0  0
   -1.5625   -0.1084    4.2469 O   0  0  0  0  0  0  0  0  0  0  0  0
   -0.3655    0.4893    4.5325 C   0  0  0  0  0  0  0  0  0  0  0  0
    0.7420    0.0061    3.7207 N   0  0  0  0  0  0  0  0  0  0  0  0
    1.9567    0.0032    4.5328 C   0  0  0  0  0  0  0  0  0  0  0  0
    3.2030    0.0476    3.6923 C   0  0  0  0  0  0  0  0  0  0  0  0
    3.1736   -1.0302    2.7059 N   0  0  0  0  0  0  0  0  0  0  0  0
    4.3475   -0.8682    1.8860 C   0  0  0  0  0  0  0  0  0  0  0  0
    4.6581   -1.9816    1.1297 O   0  0  0  0  0  0  0  0  0  0  0  0
   -3.7664    0.0574    3.5412 C   0  0  0  0  0  0  0  0  0  0  0  0
   -4.1032    0.4523    5.4138 Br  0  0  0  0  0  0  0  0  0  0  0  0
    2.3950    4.5851   -3.7032 C   0  0  0  0  0  0  0  0  0  0  0  0
    2.2803    6.2467   -4.7015 Br  0  0  0  0  0  0  0  0  0  0  0  0
    1.4236    3.6222   -4.3152 C   0  0  0  0  0  0  0  0  0  0  0  0
    1.8449    3.8154   -5.4541 O   0  0  0  0  0  0  0  0  0  0  0  0
    0.5873    2.4550   -4.7314 C   0  0  0  0  0  0  0  0  0  0  0  0
   -0.5352    2.2762   -3.8460 N   0  0  0  0  0  0  0  0  0  0  0  0
   -1.5510    1.4515   -4.4975 C   0  0  0  0  0  0  0  0  0  0  0  0
   -0.9480    0.0866   -4.6749 C   0  0  0  0  0  0  0  0  0  0  0  0
   -1.8642   -0.8920   -5.1918 N   0  0  0  0  0  0  0  0  0  0  0  0
   -3.2232   -0.7110   -4.7601 C   0  0  0  0  0  0  0  0  0  0  0  0
   -3.4373   -1.1298   -3.3369 C   0  0  0  0  0  0  0  0  0  0  0  0
   -4.5428   -0.5919   -3.2841 O   0  0  0  0  0  0  0  0  0  0  0  0
   -3.4770   -1.5073   -1.8855 C   0  0  0  0  0  0  0  0  0  0  0  0
   -3.3620    0.1332   -0.8817 Br  0  0  0  0  0  0  0  0  0  0  0  0
   -3.6026   -3.4386    3.7026 H   0  0  0  0  0  0  0  0  0  0  0  0
   -5.2717   -2.9358    4.0057 H   0  0  0  0  0  0  0  0  0  0  0  0
   -5.8763   -3.1503    1.9118 H   0  0  0  0  0  0  0  0  0  0  0  0
   -3.5349   -4.8325    2.3469 H   0  0  0  0  0  0  0  0  0  0  0  0
   -5.2286   -5.1958    2.7173 H   0  0  0  0  0  0  0  0  0  0  0  0
   -3.8465   -5.9152    0.3560 H   0  0  0  0  0  0  0  0  0  0  0  0
   -5.6030   -5.9833    0.6338 H   0  0  0  0  0  0  0  0  0  0  0  0
   -5.3412   -3.4110   -0.0562 H   0  0  0  0  0  0  0  0  0  0  0  0
   -3.6040   -5.2757   -1.5770 H   0  0  0  0  0  0  0  0  0  0  0  0
   -4.2372   -3.8180   -2.3604 H   0  0  0  0  0  0  0  0  0  0  0  0
   -1.9123   -2.8200   -2.4635 H   0  0  0  0  0  0  0  0  0  0  0  0
   -1.8080   -1.2575    0.1070 H   0  0  0  0  0  0  0  0  0  0  0  0
   -0.6552   -1.2025   -1.2445 H   0  0  0  0  0  0  0  0  0  0  0  0
    0.4519   -2.9305   -0.2620 H   0  0  0  0  0  0  0  0  0  0  0  0
   -1.8112   -3.2480    1.5801 H   0  0  0  0  0  0  0  0  0  0  0  0
   -0.6341   -1.8512    1.7385 H   0  0  0  0  0  0  0  0  0  0  0  0
   -0.3819   -4.2028    3.0381 H   0  0  0  0  0  0  0  0  0  0  0  0
    0.9916   -3.1553    2.6475 H   0  0  0  0  0  0  0  0  0  0  0  0
    0.1523   -5.7210    1.4669 H   0  0  0  0  0  0  0  0  0  0  0  0
    2.1831   -4.6388    2.9561 H   0  0  0  0  0  0  0  0  0  0  0  0
    2.1786   -6.2378    2.1310 H   0  0  0  0  0  0  0  0  0  0  0  0
    4.9315   -4.1383    0.1412 H   0  0  0  0  0  0  0  0  0  0  0  0
    2.6285   -2.3252    0.7622 H   0  0  0  0  0  0  0  0  0  0  0  0
    3.1133   -2.1264   -1.8174 H   0  0  0  0  0  0  0  0  0  0  0  0
    4.6105   -1.3103   -1.3357 H   0  0  0  0  0  0  0  0  0  0  0  0
    1.7833   -0.6250   -0.7276 H   0  0  0  0  0  0  0  0  0  0  0  0
    4.0157    0.3583   -2.3413 H   0  0  0  0  0  0  0  0  0  0  0  0
    2.2188    0.6185   -2.4716 H   0  0  0  0  0  0  0  0  0  0  0  0
    2.1532    2.2475   -0.8150 H   0  0  0  0  0  0  0  0  0  0  0  0
    3.8008    1.9139   -0.1956 H   0  0  0  0  0  0  0  0  0  0  0  0
    4.7641    2.8751   -1.9364 H   0  0  0  0  0  0  0  0  0  0  0  0
    3.0813    4.1599   -0.3739 H   0  0  0  0  0  0  0  0  0  0  0  0
    4.1425    4.9473   -1.5727 H   0  0  0  0  0  0  0  0  0  0  0  0
    2.1306    5.9141   -2.0633 H   0  0  0  0  0  0  0  0  0  0  0  0
    1.1586    4.5121    0.2049 H   0  0  0  0  0  0  0  0  0  0  0  0
    0.7954    6.0419   -0.6361 H   0  0  0  0  0  0  0  0  0  0  0  0
   -1.1563    5.4351    0.4004 H   0  0  0  0  0  0  0  0  0  0  0  0
   -0.1403    2.8533    0.2686 H   0  0  0  0  0  0  0  0  0  0  0  0
   -1.5726    2.9164   -0.8343 H   0  0  0  0  0  0  0  0  0  0  0  0
   -2.9693    2.8136    0.9883 H   0  0  0  0  0  0  0  0  0  0  0  0
   -2.2320    4.2998    1.6120 H   0  0  0  0  0  0  0  0  0  0  0  0
   -0.7114    3.2263    2.8029 H   0  0  0  0  0  0  0  0  0  0  0  0
   -3.3154    2.3406    2.9261 H   0  0  0  0  0  0  0  0  0  0  0  0
   -2.2028    2.4209    4.2942 H   0  0  0  0  0  0  0  0  0  0  0  0
   -2.0816    0.1097    2.2662 H   0  0  0  0  0  0  0  0  0  0  0  0
   -0.1055    0.2066    5.5852 H   0  0  0  0  0  0  0  0  0  0  0  0
   -0.3624    1.5860    4.5144 H   0  0  0  0  0  0  0  0  0  0  0  0
    0.9542    0.6564    2.9184 H   0  0  0  0  0  0  0  0  0  0  0  0
    1.9913    0.9051    5.1953 H   0  0  0  0  0  0  0  0  0  0  0  0
    1.9667   -0.8744    5.2023 H   0  0  0  0  0  0  0  0  0  0  0  0
    4.0632   -0.0286    4.3735 H   0  0  0  0  0  0  0  0  0  0  0  0
    3.2303    1.0337    3.1641 H   0  0  0  0  0  0  0  0  0  0  0  0
    2.2768   -0.9041    2.1834 H   0  0  0  0  0  0  0  0  0  0  0  0
    5.2028   -0.7183    2.5931 H   0  0  0  0  0  0  0  0  0  0  0  0
    4.3122    0.0750    1.2845 H   0  0  0  0  0  0  0  0  0  0  0  0
   -4.4640    0.6714    2.9368 H   0  0  0  0  0  0  0  0  0  0  0  0
    3.4239    4.1843   -3.8674 H   0  0  0  0  0  0  0  0  0  0  0  0
    0.1809    2.7172   -5.7398 H   0  0  0  0  0  0  0  0  0  0  0  0
    1.2398    1.5731   -4.8093 H   0  0  0  0  0  0  0  0  0  0  0  0
   -0.9821    3.2236   -3.7380 H   0  0  0  0  0  0  0  0  0  0  0  0
   -1.8129    1.8791   -5.4799 H   0  0  0  0  0  0  0  0  0  0  0  0
   -2.4151    1.4410   -3.7886 H   0  0  0  0  0  0  0  0  0  0  0  0
   -0.5125   -0.2983   -3.7419 H   0  0  0  0  0  0  0  0  0  0  0  0
   -0.1292    0.1942   -5.4263 H   0  0  0  0  0  0  0  0  0  0  0  0
   -1.8743   -0.7997   -6.2422 H   0  0  0  0  0  0  0  0  0  0  0  0
   -3.8490   -1.4102   -5.3708 H   0  0  0  0  0  0  0  0  0  0  0  0
   -3.6284    0.2975   -4.9595 H   0  0  0  0  0  0  0  0  0  0  0  0
   -4.5117   -1.9022   -1.7207 H   0  0  0  0  0  0  0  0  0  0  0  0
  1  2  2  0
  2  3  1  0
  3  4  1  0
  4  5  1  0
  5  6  1  0
  6  7  1  0
  7  8  1  0
  8  9  1  0
  9 10  1  0
 10 11  1  0
 11 12  1  0
 12 13  1  0
 13 14  1  0
 14 15  1  0
 15 16  1  0
 16 17  1  0
 17 18  2  0
 17 19  1  0
 19 20  1  0
 19 21  1  0
 21 22  1  0
 22 23  1  0
 23 24  1  0
 24 25  1  0
 25 26  1  0
 26 27  1  0
 27 28  1  0
 28 29  1  0
 29 30  1  0
 30 31  1  0
 31 32  1  0
 32 33  1  0
 33 34  1  0
 34 35  1  0
 35 36  1  0
 36 37  1  0
 37 38  1  0
 38 39  1  0
 39 40  1  0
 40 41  1  0
 41 42  1  0
 42 43  1  0
 43 44  1  0
 36 45  1  0
 45 46  1  0
 28 47  1  0
 47 48  1  0
 47 49  1  0
 49 50  2  0
 49 51  1  0
 51 52  1  0
 52 53  1  0
 53 54  1  0
 54 55  1  0
 55 56  1  0
 56 57  1  0
 57 58  2  0
 57 59  1  0
 59 60  1  0
 45  2  1  0
 59 10  1  0
 44 21  1  0
  3 61  1  0
  3 62  1  0
  4 63  1  0
  5 64  1  0
  5 65  1  0
  6 66  1  0
  6 67  1  0
  7 68  1  0
  8 69  1  0
  8 70  1  0
 10 71  1  0
 11 72  1  0
 11 73  1  0
 12 74  1  0
 13 75  1  0
 13 76  1  0
 14 77  1  0
 14 78  1  0
 15 79  1  0
 16 80  1  0
 16 81  1  0
 19 82  1  0
 21 83  1  0
 22 84  1  0
 22 85  1  0
 23 86  1  0
 24 87  1  0
 24 88  1  0
 25 89  1  0
 25 90  1  0
 26 91  1  0
 27 92  1  0
 27 93  1  0
 28 94  1  0
 30 95  1  0
 30 96  1  0
 31 97  1  0
 32 98  1  0
 32 99  1  0
 33100  1  0
 33101  1  0
 34102  1  0
 35103  1  0
 35104  1  0
 36105  1  0
 38106  1  0
 38107  1  0
 39108  1  0
 40109  1  0
 40110  1  0
 41111  1  0
 41112  1  0
 42113  1  0
 43114  1  0
 43115  1  0
 45116  1  0
 47117  1  0
 51118  1  0
 51119  1  0
 52120  1  0
 53121  1  0
 53122  1  0
 54123  1  0
 54124  1  0
 55125  1  0
 56126  1  0
 56127  1  0
 59128  1  0
M  END
