
     RDKit          3D

164170  0  0  0  0  0  0  0  0999 V2000
    1.7804   -5.0246   -0.5907 O   0  0  0  0  0  0  0  0  0  0  0  0
    1.7899   -4.3201   -0.8482 C   0  0  0  0  0  0  0  0  0  0  0  0
    3.1838   -4.3404   -1.3947 C   0  0  0  0  0  0  0  0  0  0  0  0
    3.7545   -3.0227   -1.4999 N   0  0  0  0  0  0  0  0  0  0  0  0
    3.7581   -2.5040   -2.8481 C   0  0  0  0  0  0  0  0  0  0  0  0
    4.9464   -1.6287   -3.1289 C   0  0  0  0  0  0  0  0  0  0  0  0
    4.6141   -0.2455   -3.3359 N   0  0  0  0  0  0  0  0  0  0  0  0
    4.2604    0.3817   -2.0948 C   0  0  0  0  0  0  0  0  0  0  0  0
    4.1740    1.8712   -2.1485 C   0  0  0  0  0  0  0  0  0  0  0  0
    3.1034    2.4488   -2.9922 C   0  0  0  0  0  0  0  0  0  0  0  0
    1.9946    1.5318   -3.3872 C   0  0  0  0  0  0  0  0  0  0  0  0
    0.6687    2.1087   -3.1693 N   0  0  0  0  0  0  0  0  0  0  0  0
   -0.2455    1.6088   -4.1614 C   0  0  0  0  0  0  0  0  0  0  0  0
   -1.6725    1.5565   -3.7189 C   0  0  0  0  0  0  0  0  0  0  0  0
   -1.8558    1.6344   -2.2968 N   0  0  0  0  0  0  0  0  0  0  0  0
   -3.1571    1.1165   -1.9081 C   0  0  0  0  0  0  0  0  0  0  0  0
   -2.8991   -0.0426   -0.9698 C   0  0  0  0  0  0  0  0  0  0  0  0
   -4.0285   -0.2317   -0.0008 C   0  0  0  0  0  0  0  0  0  0  0  0
   -4.8336    0.3652   -0.7140 O   0  0  0  0  0  0  0  0  0  0  0  0
   -5.0413   -0.5427    1.0600 C   0  0  0  0  0  0  0  0  0  0  0  0
   -4.5574   -1.5386    2.0596 C   0  0  0  0  0  0  0  0  0  0  0  0
   -3.6214   -2.4920    1.4603 N   0  0  0  0  0  0  0  0  0  0  0  0
   -2.9987   -3.1819    2.5521 C   0  0  0  0  0  0  0  0  0  0  0  0
   -1.9219   -4.1333    2.2031 C   0  0  0  0  0  0  0  0  0  0  0  0
   -1.5405   -4.2087    0.8342 N   0  0  0  0  0  0  0  0  0  0  0  0
   -0.1445   -4.4834    0.6132 C   0  0  0  0  0  0  0  0  0  0  0  0
    0.3679   -3.8951   -0.6912 C   0  0  0  0  0  0  0  0  0  0  0  0
    0.2876   -2.3971   -0.6541 C   0  0  0  0  0  0  0  0  0  0  0  0
    0.0917   -1.9958    0.7128 N   0  0  0  0  0  0  0  0  0  0  0  0
    1.2831   -1.5322    1.3677 C   0  0  0  0  0  0  0  0  0  0  0  0
    1.2529   -0.0293    1.4113 C   0  0  0  0  0  0  0  0  0  0  0  0
    0.0697    0.5003    1.9772 N   0  0  0  0  0  0  0  0  0  0  0  0
   -0.2401    1.8451    1.7295 C   0  0  0  0  0  0  0  0  0  0  0  0
   -0.3548    2.7319    2.9357 C   0  0  0  0  0  0  0  0  0  0  0  0
   -1.6844    2.4751    3.6310 C   0  0  0  0  0  0  0  0  0  0  0  0
   -2.4807    1.4849    2.9248 N   0  0  0  0  0  0  0  0  0  0  0  0
   -3.6693    2.0410    2.3321 C   0  0  0  0  0  0  0  0  0  0  0  0
   -4.9263    1.2827    2.6736 C   0  0  0  0  0  0  0  0  0  0  0  0
   -5.5669    0.6637    1.5682 N   0  0  0  0  0  0  0  0  0  0  0  0
   -0.3447    4.2007    2.5296 C   0  0  0  0  0  0  0  0  0  0  0  0
   -0.0769    4.3804    1.0803 C   0  0  0  0  0  0  0  0  0  0  0  0
    0.9666    5.2347    0.7405 C   0  0  0  0  0  0  0  0  0  0  0  0
    1.1268    5.7459   -0.5286 C   0  0  0  0  0  0  0  0  0  0  0  0
    0.0577    5.7491   -1.3823 C   0  0  0  0  0  0  0  0  0  0  0  0
   -1.0921    5.1131   -1.0013 C   0  0  0  0  0  0  0  0  0  0  0  0
   -1.1497    4.4097    0.1962 C   0  0  0  0  0  0  0  0  0  0  0  0
    0.8015    2.4634    3.8527 C   0  0  0  0  0  0  0  0  0  0  0  0
    0.3604    1.5471    4.5030 O   0  0  0  0  0  0  0  0  0  0  0  0
    1.9926    2.6892    4.7365 C   0  0  0  0  0  0  0  0  0  0  0  0
    3.2141    2.2133    4.1430 N   0  0  0  0  0  0  0  0  0  0  0  0
    3.5514    2.9727    2.9664 C   0  0  0  0  0  0  0  0  0  0  0  0
    4.5507    2.2888    2.0758 C   0  0  0  0  0  0  0  0  0  0  0  0
    4.1660    2.5167    0.6840 N   0  0  0  0  0  0  0  0  0  0  0  0
    4.0548    2.3561   -0.7360 C   0  0  0  0  0  0  0  0  0  0  0  0
    2.8142    2.4781   -0.7628 O   0  0  0  0  0  0  0  0  0  0  0  0
   -0.4267   -4.5219   -1.7981 C   0  0  0  0  0  0  0  0  0  0  0  0
   -0.1486   -3.9356   -3.1298 C   0  0  0  0  0  0  0  0  0  0  0  0
   -1.1502   -3.1438   -3.6778 C   0  0  0  0  0  0  0  0  0  0  0  0
   -1.2741   -2.9552   -5.0475 C   0  0  0  0  0  0  0  0  0  0  0  0
   -0.7086   -3.9009   -5.8928 C   0  0  0  0  0  0  0  0  0  0  0  0
    0.4414   -4.5165   -5.4145 C   0  0  0  0  0  0  0  0  0  0  0  0
    0.5709   -4.6959   -4.0433 C   0  0  0  0  0  0  0  0  0  0  0  0
   -6.1938   -1.2335    0.3294 C   0  0  0  0  0  0  0  0  0  0  0  0
   -5.8764   -2.6335   -0.0089 C   0  0  0  0  0  0  0  0  0  0  0  0
   -6.4913   -3.7082    0.6226 C   0  0  0  0  0  0  0  0  0  0  0  0
   -6.2842   -5.0137    0.2376 C   0  0  0  0  0  0  0  0  0  0  0  0
   -5.3917   -5.2301   -0.7945 C   0  0  0  0  0  0  0  0  0  0  0  0
   -5.1850   -4.1922   -1.6859 C   0  0  0  0  0  0  0  0  0  0  0  0
   -5.4406   -2.8807   -1.3051 C   0  0  0  0  0  0  0  0  0  0  0  0
    5.5364    2.3641   -2.6285 C   0  0  0  0  0  0  0  0  0  0  0  0
    6.6338    1.9139   -1.7539 C   0  0  0  0  0  0  0  0  0  0  0  0
    7.6069    1.0949   -2.3137 C   0  0  0  0  0  0  0  0  0  0  0  0
    8.5668    0.6198   -1.4287 C   0  0  0  0  0  0  0  0  0  0  0  0
    8.6193    1.0931   -0.1235 C   0  0  0  0  0  0  0  0  0  0  0  0
    7.9926    2.3084    0.1228 C   0  0  0  0  0  0  0  0  0  0  0  0
    7.1012    2.8216   -0.8112 C   0  0  0  0  0  0  0  0  0  0  0  0
    3.7758   -4.9980   -0.7089 H   0  0  0  0  0  0  0  0  0  0  0  0
    3.2447   -4.8075   -2.3879 H   0  0  0  0  0  0  0  0  0  0  0  0
    4.7362   -3.0789   -1.1233 H   0  0  0  0  0  0  0  0  0  0  0  0
    2.8169   -1.9938   -3.1108 H   0  0  0  0  0  0  0  0  0  0  0  0
    3.8490   -3.3925   -3.5231 H   0  0  0  0  0  0  0  0  0  0  0  0
    5.5459   -1.9817   -3.9950 H   0  0  0  0  0  0  0  0  0  0  0  0
    5.6143   -1.6783   -2.2460 H   0  0  0  0  0  0  0  0  0  0  0  0
    3.9805   -0.0636   -4.1252 H   0  0  0  0  0  0  0  0  0  0  0  0
    5.1160    0.1598   -1.4019 H   0  0  0  0  0  0  0  0  0  0  0  0
    3.3900   -0.1026   -1.5836 H   0  0  0  0  0  0  0  0  0  0  0  0
    2.6246    3.3676   -2.5643 H   0  0  0  0  0  0  0  0  0  0  0  0
    3.5745    2.8210   -3.9390 H   0  0  0  0  0  0  0  0  0  0  0  0
    1.9848    0.5596   -2.8781 H   0  0  0  0  0  0  0  0  0  0  0  0
    2.0288    1.2925   -4.4815 H   0  0  0  0  0  0  0  0  0  0  0  0
    0.6922    3.1396   -3.0895 H   0  0  0  0  0  0  0  0  0  0  0  0
    0.1384    0.6104   -4.4873 H   0  0  0  0  0  0  0  0  0  0  0  0
   -0.2067    2.2488   -5.0790 H   0  0  0  0  0  0  0  0  0  0  0  0
   -2.0823    0.5675   -4.0466 H   0  0  0  0  0  0  0  0  0  0  0  0
   -2.3050    2.3291   -4.1913 H   0  0  0  0  0  0  0  0  0  0  0  0
   -1.0764    1.2514   -1.7370 H   0  0  0  0  0  0  0  0  0  0  0  0
   -3.6901    1.9353   -1.3952 H   0  0  0  0  0  0  0  0  0  0  0  0
   -3.7046    0.7254   -2.7963 H   0  0  0  0  0  0  0  0  0  0  0  0
   -2.7053   -0.9524   -1.5665 H   0  0  0  0  0  0  0  0  0  0  0  0
   -2.0236    0.2589   -0.3487 H   0  0  0  0  0  0  0  0  0  0  0  0
   -5.4475   -2.0807    2.4687 H   0  0  0  0  0  0  0  0  0  0  0  0
   -4.0280   -1.1279    2.9247 H   0  0  0  0  0  0  0  0  0  0  0  0
   -2.9463   -1.9033    0.9420 H   0  0  0  0  0  0  0  0  0  0  0  0
   -2.5875   -2.3990    3.2388 H   0  0  0  0  0  0  0  0  0  0  0  0
   -3.8156   -3.6710    3.1407 H   0  0  0  0  0  0  0  0  0  0  0  0
   -2.2415   -5.1588    2.5195 H   0  0  0  0  0  0  0  0  0  0  0  0
   -0.9961   -3.9327    2.8001 H   0  0  0  0  0  0  0  0  0  0  0  0
   -1.9504   -3.5078    0.2032 H   0  0  0  0  0  0  0  0  0  0  0  0
   -0.0399   -5.5959    0.5531 H   0  0  0  0  0  0  0  0  0  0  0  0
    0.5110   -4.1567    1.4340 H   0  0  0  0  0  0  0  0  0  0  0  0
    1.2725   -1.9741   -0.9774 H   0  0  0  0  0  0  0  0  0  0  0  0
   -0.4567   -1.9764   -1.3531 H   0  0  0  0  0  0  0  0  0  0  0  0
   -0.6419   -1.2827    0.8527 H   0  0  0  0  0  0  0  0  0  0  0  0
    2.1967   -1.8221    0.8184 H   0  0  0  0  0  0  0  0  0  0  0  0
    1.3375   -2.0094    2.3565 H   0  0  0  0  0  0  0  0  0  0  0  0
    2.1190    0.3042    1.9975 H   0  0  0  0  0  0  0  0  0  0  0  0
    1.2872    0.3024    0.3421 H   0  0  0  0  0  0  0  0  0  0  0  0
   -0.3735    0.0033    2.7422 H   0  0  0  0  0  0  0  0  0  0  0  0
   -1.1884    1.9136    1.1733 H   0  0  0  0  0  0  0  0  0  0  0  0
    0.5426    2.2683    1.0496 H   0  0  0  0  0  0  0  0  0  0  0  0
   -2.3186    3.3978    3.6580 H   0  0  0  0  0  0  0  0  0  0  0  0
   -1.5416    2.2070    4.7078 H   0  0  0  0  0  0  0  0  0  0  0  0
   -2.7774    0.7880    3.6298 H   0  0  0  0  0  0  0  0  0  0  0  0
   -3.7058    3.1101    2.6649 H   0  0  0  0  0  0  0  0  0  0  0  0
   -3.5758    2.1074    1.2185 H   0  0  0  0  0  0  0  0  0  0  0  0
   -5.6489    2.0601    3.0419 H   0  0  0  0  0  0  0  0  0  0  0  0
   -4.7990    0.6222    3.5688 H   0  0  0  0  0  0  0  0  0  0  0  0
   -6.5925    0.7836    1.5167 H   0  0  0  0  0  0  0  0  0  0  0  0
    0.4125    4.7271    3.1657 H   0  0  0  0  0  0  0  0  0  0  0  0
   -1.3107    4.7032    2.7928 H   0  0  0  0  0  0  0  0  0  0  0  0
    1.7486    5.4928    1.4560 H   0  0  0  0  0  0  0  0  0  0  0  0
    2.0235    6.2636   -0.8368 H   0  0  0  0  0  0  0  0  0  0  0  0
   -0.0019    6.3603   -2.2841 H   0  0  0  0  0  0  0  0  0  0  0  0
   -1.8738    4.9356   -1.7414 H   0  0  0  0  0  0  0  0  0  0  0  0
   -2.1145    4.0259    0.4658 H   0  0  0  0  0  0  0  0  0  0  0  0
    1.8498    2.1941    5.7225 H   0  0  0  0  0  0  0  0  0  0  0  0
    2.1426    3.7786    4.9460 H   0  0  0  0  0  0  0  0  0  0  0  0
    3.1219    1.1962    3.9844 H   0  0  0  0  0  0  0  0  0  0  0  0
    2.6202    3.1320    2.3990 H   0  0  0  0  0  0  0  0  0  0  0  0
    3.9215    3.9609    3.2980 H   0  0  0  0  0  0  0  0  0  0  0  0
    5.5960    2.5752    2.2744 H   0  0  0  0  0  0  0  0  0  0  0  0
    4.4564    1.1915    2.2769 H   0  0  0  0  0  0  0  0  0  0  0  0
    3.1364    2.5560    0.9040 H   0  0  0  0  0  0  0  0  0  0  0  0
   -1.5132   -4.4805   -1.5322 H   0  0  0  0  0  0  0  0  0  0  0  0
   -0.1774   -5.6135   -1.7853 H   0  0  0  0  0  0  0  0  0  0  0  0
   -1.9603   -2.7895   -3.0394 H   0  0  0  0  0  0  0  0  0  0  0  0
   -2.1558   -2.4493   -5.4432 H   0  0  0  0  0  0  0  0  0  0  0  0
   -1.0363   -4.0260   -6.9261 H   0  0  0  0  0  0  0  0  0  0  0  0
    0.8788   -5.2531   -6.0907 H   0  0  0  0  0  0  0  0  0  0  0  0
    1.2136   -5.5175   -3.7293 H   0  0  0  0  0  0  0  0  0  0  0  0
   -6.5738   -0.6404   -0.5129 H   0  0  0  0  0  0  0  0  0  0  0  0
   -7.0255   -1.2612    1.0791 H   0  0  0  0  0  0  0  0  0  0  0  0
   -7.1009   -3.5350    1.5035 H   0  0  0  0  0  0  0  0  0  0  0  0
   -6.3069   -5.7816    1.0095 H   0  0  0  0  0  0  0  0  0  0  0  0
   -4.8001   -6.1257   -0.9005 H   0  0  0  0  0  0  0  0  0  0  0  0
   -4.9375   -4.3955   -2.7276 H   0  0  0  0  0  0  0  0  0  0  0  0
   -5.4150   -2.1320   -2.0759 H   0  0  0  0  0  0  0  0  0  0  0  0
    5.4953    3.4684   -2.6968 H   0  0  0  0  0  0  0  0  0  0  0  0
    5.6352    1.9736   -3.6731 H   0  0  0  0  0  0  0  0  0  0  0  0
    7.5456    0.7315   -3.3372 H   0  0  0  0  0  0  0  0  0  0  0  0
    9.1694   -0.2214   -1.7200 H   0  0  0  0  0  0  0  0  0  0  0  0
    9.1925    0.5781    0.6493 H   0  0  0  0  0  0  0  0  0  0  0  0
    8.2304    2.8807    1.0024 H   0  0  0  0  0  0  0  0  0  0  0  0
    6.6124    3.7815   -0.6371 H   0  0  0  0  0  0  0  0  0  0  0  0
  1  2  2  0
  2  3  1  0
  3  4  1  0
  4  5  1  0
  5  6  1  0
  6  7  1  0
  7  8  1  0
  8  9  1  0
  9 10  1  0
 10 11  1  0
 11 12  1  0
 12 13  1  0
 13 14  1  0
 14 15  1  0
 15 16  1  0
 16 17  1  0
 17 18  1  0
 18 19  2  0
 18 20  1  0
 20 21  1  0
 21 22  1  0
 22 23  1  0
 23 24  1  0
 24 25  1  0
 25 26  1  0
 26 27  1  0
 27 28  1  0
 28 29  1  0
 29 30  1  0
 30 31  1  0
 31 32  1  0
 32 33  1  0
 33 34  1  0
 34 35  1  0
 35 36  1  0
 36 37  1  0
 37 38  1  0
 38 39  1  0
 34 40  1  0
 40 41  1  0
 41 42  2  0
 42 43  1  0
 43 44  2  0
 44 45  1  0
 45 46  2  0
 34 47  1  0
 47 48  2  0
 47 49  1  0
 49 50  1  0
 50 51  1  0
 51 52  1  0
 52 53  1  0
 53 54  1  0
 54 55  2  0
 27 56  1  0
 56 57  1  0
 57 58  2  0
 58 59  1  0
 59 60  2  0
 60 61  1  0
 61 62  2  0
 20 63  1  0
 63 64  1  0
 64 65  2  0
 65 66  1  0
 66 67  2  0
 67 68  1  0
 68 69  2  0
  9 70  1  0
 70 71  1  0
 71 72  2  0
 72 73  1  0
 73 74  2  0
 74 75  1  0
 75 76  2  0
 27  2  1  0
 46 41  1  0
 62 57  1  0
 69 64  1  0
 76 71  1  0
 54  9  1  0
 39 20  1  0
  3 77  1  0
  3 78  1  0
  4 79  1  0
  5 80  1  0
  5 81  1  0
  6 82  1  0
  6 83  1  0
  7 84  1  0
  8 85  1  0
  8 86  1  0
 10 87  1  0
 10 88  1  0
 11 89  1  0
 11 90  1  0
 12 91  1  0
 13 92  1  0
 13 93  1  0
 14 94  1  0
 14 95  1  0
 15 96  1  0
 16 97  1  0
 16 98  1  0
 17 99  1  0
 17100  1  0
 21101  1  0
 21102  1  0
 22103  1  0
 23104  1  0
 23105  1  0
 24106  1  0
 24107  1  0
 25108  1  0
 26109  1  0
 26110  1  0
 28111  1  0
 28112  1  0
 29113  1  0
 30114  1  0
 30115  1  0
 31116  1  0
 31117  1  0
 32118  1  0
 33119  1  0
 33120  1  0
 35121  1  0
 35122  1  0
 36123  1  0
 37124  1  0
 37125  1  0
 38126  1  0
 38127  1  0
 39128  1  0
 40129  1  0
 40130  1  0
 42131  1  0
 43132  1  0
 44133  1  0
 45134  1  0
 46135  1  0
 49136  1  0
 49137  1  0
 50138  1  0
 51139  1  0
 51140  1  0
 52141  1  0
 52142  1  0
 53143  1  0
 56144  1  0
 56145  1  0
 58146  1  0
 59147  1  0
 60148  1  0
 61149  1  0
 62150  1  0
 63151  1  0
 63152  1  0
 65153  1  0
 66154  1  0
 67155  1  0
 68156  1  0
 69157  1  0
 70158  1  0
 70159  1  0
 72160  1  0
 73161  1  0
 74162  1  0
 75163  1  0
 76164  1  0
M  END
