
     RDKit          3D

144150  0  0  0  0  0  0  0  0999 V2000
    7.0188   -4.4261    1.1449 F   0  0  0  0  0  0  0  0  0  0  0  0
    6.2362   -3.7954    0.2386 C   0  0  0  0  0  0  0  0  0  0  0  0
    6.1849   -4.5415   -0.8913 F   0  0  0  0  0  0  0  0  0  0  0  0
    6.9046   -2.6161   -0.0805 F   0  0  0  0  0  0  0  0  0  0  0  0
    4.8835   -3.4702    0.8069 C   0  0  0  0  0  0  0  0  0  0  0  0
    4.8369   -2.5640    1.8721 C   0  0  0  0  0  0  0  0  0  0  0  0
    3.6696   -2.6407    2.6343 C   0  0  0  0  0  0  0  0  0  0  0  0
    2.9634   -3.8453    2.6419 C   0  0  0  0  0  0  0  0  0  0  0  0
    3.1422   -4.6307    1.4962 C   0  0  0  0  0  0  0  0  0  0  0  0
    3.5954   -3.9045    0.3454 C   0  0  0  0  0  0  0  0  0  0  0  0
    2.7434   -3.3253   -0.7863 C   0  0  0  0  0  0  0  0  0  0  0  0
    2.7757   -4.1466   -1.9800 N   0  0  0  0  0  0  0  0  0  0  0  0
    1.4801   -4.1681   -2.6503 C   0  0  0  0  0  0  0  0  0  0  0  0
    1.5409   -3.6315   -4.0514 C   0  0  0  0  0  0  0  0  0  0  0  0
    0.5709   -2.5995   -4.1842 N   0  0  0  0  0  0  0  0  0  0  0  0
    0.6891   -1.7863   -5.3949 C   0  0  0  0  0  0  0  0  0  0  0  0
    0.4434   -0.3313   -5.2754 C   0  0  0  0  0  0  0  0  0  0  0  0
   -0.0371    0.5019   -6.3335 C   0  0  0  0  0  0  0  0  0  0  0  0
   -0.5533    1.7736   -5.9156 C   0  0  0  0  0  0  0  0  0  0  0  0
   -1.6821    1.1808   -5.2518 C   0  0  0  0  0  0  0  0  0  0  0  0
   -1.3117    0.4883   -4.0572 C   0  0  0  0  0  0  0  0  0  0  0  0
   -2.2169   -0.4167   -3.3350 C   0  0  0  0  0  0  0  0  0  0  0  0
   -2.9951    0.1941   -2.2486 N   0  0  0  0  0  0  0  0  0  0  0  0
   -4.3693   -0.2266   -2.2674 C   0  0  0  0  0  0  0  0  0  0  0  0
   -4.6234   -1.5542   -1.6267 C   0  0  0  0  0  0  0  0  0  0  0  0
   -4.6511   -1.5325   -0.1906 N   0  0  0  0  0  0  0  0  0  0  0  0
   -4.3637   -2.8095    0.3445 C   0  0  0  0  0  0  0  0  0  0  0  0
   -2.8995   -3.1134    0.6836 C   0  0  0  0  0  0  0  0  0  0  0  0
   -1.7232   -2.4530    0.1989 C   0  0  0  0  0  0  0  0  0  0  0  0
   -1.3108   -1.4030    1.0272 C   0  0  0  0  0  0  0  0  0  0  0  0
   -1.6383   -1.5824    2.3683 C   0  0  0  0  0  0  0  0  0  0  0  0
   -1.9072   -2.8768    2.8276 C   0  0  0  0  0  0  0  0  0  0  0  0
   -1.6714   -2.0621    4.0328 C   0  0  0  0  0  0  0  0  0  0  0  0
   -1.2900   -2.8498    5.2071 N   0  0  0  0  0  0  0  0  0  0  0  0
   -0.1436   -2.3252    5.8916 C   0  0  0  0  0  0  0  0  0  0  0  0
    1.0682   -3.2300    5.7064 C   0  0  0  0  0  0  0  0  0  0  0  0
    1.1754   -3.5847    4.2993 N   0  0  0  0  0  0  0  0  0  0  0  0
    2.3972   -3.0377    3.7320 C   0  0  0  0  0  0  0  0  0  0  0  0
   -2.3883   -3.7591    1.8531 C   0  0  0  0  0  0  0  0  0  0  0  0
   -2.3089   -5.2316    2.1424 C   0  0  0  0  0  0  0  0  0  0  0  0
   -2.8725   -6.0091    1.1943 F   0  0  0  0  0  0  0  0  0  0  0  0
   -3.0047   -5.4398    3.3298 F   0  0  0  0  0  0  0  0  0  0  0  0
   -1.0207   -5.6434    2.3674 F   0  0  0  0  0  0  0  0  0  0  0  0
   -1.2307   -0.0415    1.6155 C   0  0  0  0  0  0  0  0  0  0  0  0
   -2.4361    0.4530    2.1865 N   0  0  0  0  0  0  0  0  0  0  0  0
   -3.0798    1.5151    1.4541 C   0  0  0  0  0  0  0  0  0  0  0  0
   -3.4031    2.7039    2.3506 C   0  0  0  0  0  0  0  0  0  0  0  0
   -3.2900    3.9624    1.6878 N   0  0  0  0  0  0  0  0  0  0  0  0
   -1.8922    4.2910    1.5321 C   0  0  0  0  0  0  0  0  0  0  0  0
   -1.6528    5.5514    0.7791 C   0  0  0  0  0  0  0  0  0  0  0  0
   -0.4804    4.8092    0.6063 C   0  0  0  0  0  0  0  0  0  0  0  0
    0.6297    5.4136    0.0038 C   0  0  0  0  0  0  0  0  0  0  0  0
    1.0851    4.1963    0.7449 C   0  0  0  0  0  0  0  0  0  0  0  0
    2.6030    4.1036    0.8519 C   0  0  0  0  0  0  0  0  0  0  0  0
    2.8780    3.0596    1.8212 N   0  0  0  0  0  0  0  0  0  0  0  0
    3.7106    2.0262    1.2593 C   0  0  0  0  0  0  0  0  0  0  0  0
    4.0600    1.0171    2.3173 C   0  0  0  0  0  0  0  0  0  0  0  0
    3.9085   -0.3063    1.7705 N   0  0  0  0  0  0  0  0  0  0  0  0
    4.7084   -1.2288    2.5393 C   0  0  0  0  0  0  0  0  0  0  0  0
    0.2646    6.3069   -1.0114 C   0  0  0  0  0  0  0  0  0  0  0  0
   -1.0887    6.1929   -1.4607 C   0  0  0  0  0  0  0  0  0  0  0  0
   -1.8397    6.4639   -0.2683 C   0  0  0  0  0  0  0  0  0  0  0  0
   -1.5768    5.6211   -2.7221 N   0  0  0  0  0  0  0  0  0  0  0  0
   -2.1398    5.3705   -4.0604 C   0  0  0  0  0  0  0  0  0  0  0  0
   -1.0747    5.0526   -5.0682 C   0  0  0  0  0  0  0  0  0  0  0  0
   -0.2672    3.9458   -4.6671 N   0  0  0  0  0  0  0  0  0  0  0  0
    0.1773    3.0837   -5.6942 C   0  0  0  0  0  0  0  0  0  0  0  0
    1.3382    7.2369   -1.4841 C   0  0  0  0  0  0  0  0  0  0  0  0
    0.9097    8.2031   -2.3285 F   0  0  0  0  0  0  0  0  0  0  0  0
    2.3481    6.4659   -2.0111 F   0  0  0  0  0  0  0  0  0  0  0  0
    1.8405    7.8519   -0.3413 F   0  0  0  0  0  0  0  0  0  0  0  0
    0.1252    0.4161   -4.0931 C   0  0  0  0  0  0  0  0  0  0  0  0
    1.0832    0.8704   -3.0237 C   0  0  0  0  0  0  0  0  0  0  0  0
    2.2954    1.2074   -3.4831 F   0  0  0  0  0  0  0  0  0  0  0  0
    1.2938   -0.2474   -2.2060 F   0  0  0  0  0  0  0  0  0  0  0  0
    0.4800    1.7268   -2.1741 F   0  0  0  0  0  0  0  0  0  0  0  0
    3.5353   -1.9174    3.4424 H   0  0  0  0  0  0  0  0  0  0  0  0
    2.9412   -5.7076    1.5489 H   0  0  0  0  0  0  0  0  0  0  0  0
    3.0225   -2.3210   -1.1278 H   0  0  0  0  0  0  0  0  0  0  0  0
    1.6858   -3.1473   -0.5661 H   0  0  0  0  0  0  0  0  0  0  0  0
    3.4881   -3.7814   -2.6624 H   0  0  0  0  0  0  0  0  0  0  0  0
    1.0844   -5.2104   -2.6649 H   0  0  0  0  0  0  0  0  0  0  0  0
    0.7818   -3.5895   -2.0043 H   0  0  0  0  0  0  0  0  0  0  0  0
    2.5455   -3.1732   -4.2347 H   0  0  0  0  0  0  0  0  0  0  0  0
    1.4354   -4.4678   -4.7749 H   0  0  0  0  0  0  0  0  0  0  0  0
   -0.3828   -2.8372   -3.9076 H   0  0  0  0  0  0  0  0  0  0  0  0
   -0.0250   -2.4409   -5.9559 H   0  0  0  0  0  0  0  0  0  0  0  0
    1.7532   -2.0503   -5.6547 H   0  0  0  0  0  0  0  0  0  0  0  0
    0.1858    0.3726   -7.4168 H   0  0  0  0  0  0  0  0  0  0  0  0
   -2.6892    1.5525   -5.5355 H   0  0  0  0  0  0  0  0  0  0  0  0
   -2.8015   -1.2060   -3.8752 H   0  0  0  0  0  0  0  0  0  0  0  0
   -1.7618   -1.2065   -2.6672 H   0  0  0  0  0  0  0  0  0  0  0  0
   -2.9564    1.2273   -2.2747 H   0  0  0  0  0  0  0  0  0  0  0  0
   -4.6519   -0.3275   -3.3465 H   0  0  0  0  0  0  0  0  0  0  0  0
   -5.0446    0.5305   -1.8461 H   0  0  0  0  0  0  0  0  0  0  0  0
   -3.9284   -2.3354   -1.9625 H   0  0  0  0  0  0  0  0  0  0  0  0
   -5.6411   -1.8827   -1.9591 H   0  0  0  0  0  0  0  0  0  0  0  0
   -5.4056   -0.9839    0.2290 H   0  0  0  0  0  0  0  0  0  0  0  0
   -4.7670   -3.5476   -0.3957 H   0  0  0  0  0  0  0  0  0  0  0  0
   -5.0607   -2.8549    1.1851 H   0  0  0  0  0  0  0  0  0  0  0  0
   -1.1855   -2.6828   -0.7304 H   0  0  0  0  0  0  0  0  0  0  0  0
   -1.1529   -0.8706    3.0397 H   0  0  0  0  0  0  0  0  0  0  0  0
   -0.8067   -1.4145    3.8928 H   0  0  0  0  0  0  0  0  0  0  0  0
   -2.5917   -1.5317    4.3878 H   0  0  0  0  0  0  0  0  0  0  0  0
   -2.0943   -3.0793    5.8139 H   0  0  0  0  0  0  0  0  0  0  0  0
   -0.3074   -2.0977    6.9532 H   0  0  0  0  0  0  0  0  0  0  0  0
    0.1256   -1.3646    5.3834 H   0  0  0  0  0  0  0  0  0  0  0  0
    1.9943   -2.7248    6.0100 H   0  0  0  0  0  0  0  0  0  0  0  0
    0.9266   -4.0998    6.3627 H   0  0  0  0  0  0  0  0  0  0  0  0
    1.2736   -4.6342    4.2784 H   0  0  0  0  0  0  0  0  0  0  0  0
    2.1207   -2.0127    3.4523 H   0  0  0  0  0  0  0  0  0  0  0  0
    3.1285   -3.0872    4.5791 H   0  0  0  0  0  0  0  0  0  0  0  0
   -1.0404    0.6719    0.7713 H   0  0  0  0  0  0  0  0  0  0  0  0
   -0.3159    0.0659    2.2012 H   0  0  0  0  0  0  0  0  0  0  0  0
   -2.1922    0.8716    3.1244 H   0  0  0  0  0  0  0  0  0  0  0  0
   -2.5623    1.8037    0.5301 H   0  0  0  0  0  0  0  0  0  0  0  0
   -4.0793    1.1264    1.1317 H   0  0  0  0  0  0  0  0  0  0  0  0
   -4.4421    2.6353    2.7615 H   0  0  0  0  0  0  0  0  0  0  0  0
   -2.7232    2.7037    3.2159 H   0  0  0  0  0  0  0  0  0  0  0  0
   -3.8473    4.0638    0.8238 H   0  0  0  0  0  0  0  0  0  0  0  0
   -1.4358    3.4078    1.0669 H   0  0  0  0  0  0  0  0  0  0  0  0
   -1.5112    4.4807    2.5680 H   0  0  0  0  0  0  0  0  0  0  0  0
   -0.2584    4.1321    1.4368 H   0  0  0  0  0  0  0  0  0  0  0  0
    0.7441    4.2989    1.7915 H   0  0  0  0  0  0  0  0  0  0  0  0
    0.7843    3.2615    0.2561 H   0  0  0  0  0  0  0  0  0  0  0  0
    3.0438    3.8550   -0.1453 H   0  0  0  0  0  0  0  0  0  0  0  0
    2.9718    5.0720    1.2314 H   0  0  0  0  0  0  0  0  0  0  0  0
    3.2121    3.4209    2.7327 H   0  0  0  0  0  0  0  0  0  0  0  0
    4.6631    2.4320    0.8407 H   0  0  0  0  0  0  0  0  0  0  0  0
    3.1080    1.5256    0.4597 H   0  0  0  0  0  0  0  0  0  0  0  0
    3.3203    1.1023    3.1532 H   0  0  0  0  0  0  0  0  0  0  0  0
    5.0498    1.1802    2.7728 H   0  0  0  0  0  0  0  0  0  0  0  0
    4.2270   -0.3666    0.7803 H   0  0  0  0  0  0  0  0  0  0  0  0
    4.4077   -1.3603    3.5754 H   0  0  0  0  0  0  0  0  0  0  0  0
    5.7019   -0.7161    2.6321 H   0  0  0  0  0  0  0  0  0  0  0  0
   -2.5132    7.3150   -0.1141 H   0  0  0  0  0  0  0  0  0  0  0  0
   -1.5771    4.6175   -2.5574 H   0  0  0  0  0  0  0  0  0  0  0  0
   -2.6824    6.2619   -4.4390 H   0  0  0  0  0  0  0  0  0  0  0  0
   -2.8770    4.5596   -3.9916 H   0  0  0  0  0  0  0  0  0  0  0  0
   -0.4404    5.9485   -5.2498 H   0  0  0  0  0  0  0  0  0  0  0  0
   -1.5827    4.7885   -6.0060 H   0  0  0  0  0  0  0  0  0  0  0  0
    0.3454    4.1028   -3.8600 H   0  0  0  0  0  0  0  0  0  0  0  0
    1.2527    3.0443   -5.4817 H   0  0  0  0  0  0  0  0  0  0  0  0
    0.1089    3.7624   -6.5889 H   0  0  0  0  0  0  0  0  0  0  0  0
  1  2  1  0
  2  3  1  0
  2  4  1  0
  2  5  1  0
  5  6  2  0
  6  7  1  0
  7  8  2  0
  8  9  1  0
  9 10  2  0
 10 11  1  0
 11 12  1  0
 12 13  1  0
 13 14  1  0
 14 15  1  0
 15 16  1  0
 16 17  1  0
 17 18  1  0
 18 19  2  0
 19 20  1  0
 20 21  2  0
 21 22  1  0
 22 23  1  0
 23 24  1  0
 24 25  1  0
 25 26  1  0
 26 27  1  0
 27 28  1  0
 28 29  1  0
 29 30  2  0
 30 31  1  0
 31 32  2  0
 32 33  1  0
 33 34  1  0
 34 35  1  0
 35 36  1  0
 36 37  1  0
 37 38  1  0
 32 39  1  0
 39 40  1  0
 40 41  1  0
 40 42  1  0
 40 43  1  0
 30 44  1  0
 44 45  1  0
 45 46  1  0
 46 47  1  0
 47 48  1  0
 48 49  1  0
 49 50  1  0
 50 51  2  0
 51 52  1  0
 52 53  1  0
 53 54  1  0
 54 55  1  0
 55 56  1  0
 56 57  1  0
 57 58  1  0
 58 59  1  0
 52 60  2  0
 60 61  1  0
 61 62  2  0
 61 63  1  0
 63 64  1  0
 64 65  1  0
 65 66  1  0
 66 67  1  0
 60 68  1  0
 68 69  1  0
 68 70  1  0
 68 71  1  0
 21 72  1  0
 72 73  1  0
 73 74  1  0
 73 75  1  0
 73 76  1  0
 10  5  1  0
 72 17  2  0
 59  6  1  0
 38  8  1  0
 62 50  1  0
 67 19  1  0
 39 28  2  0
  7 77  1  0
  9 78  1  0
 11 79  1  0
 11 80  1  0
 12 81  1  0
 13 82  1  0
 13 83  1  0
 14 84  1  0
 14 85  1  0
 15 86  1  0
 16 87  1  0
 16 88  1  0
 18 89  1  0
 20 90  1  0
 22 91  1  0
 22 92  1  0
 23 93  1  0
 24 94  1  0
 24 95  1  0
 25 96  1  0
 25 97  1  0
 26 98  1  0
 27 99  1  0
 27100  1  0
 29101  1  0
 31102  1  0
 33103  1  0
 33104  1  0
 34105  1  0
 35106  1  0
 35107  1  0
 36108  1  0
 36109  1  0
 37110  1  0
 38111  1  0
 38112  1  0
 44113  1  0
 44114  1  0
 45115  1  0
 46116  1  0
 46117  1  0
 47118  1  0
 47119  1  0
 48120  1  0
 49121  1  0
 49122  1  0
 51123  1  0
 53124  1  0
 53125  1  0
 54126  1  0
 54127  1  0
 55128  1  0
 56129  1  0
 56130  1  0
 57131  1  0
 57132  1  0
 58133  1  0
 59134  1  0
 59135  1  0
 62136  1  0
 63137  1  0
 64138  1  0
 64139  1  0
 65140  1  0
 65141  1  0
 66142  1  0
 67143  1  0
 67144  1  0
M  END
