
     RDKit          3D

144150  0  0  0  0  0  0  0  0999 V2000
    1.3844   -2.7830    4.9241 O   0  0  0  0  0  0  0  0  0  0  0  0
    0.4978   -2.1405    4.9725 C   0  0  0  0  0  0  0  0  0  0  0  0
   -0.3890   -3.2128    4.4139 C   0  0  0  0  0  0  0  0  0  0  0  0
   -1.5319   -2.6870    3.7165 N   0  0  0  0  0  0  0  0  0  0  0  0
   -2.0590   -3.5641    2.7076 C   0  0  0  0  0  0  0  0  0  0  0  0
   -3.5830   -3.5434    2.6846 C   0  0  0  0  0  0  0  0  0  0  0  0
   -4.1301   -4.1567    1.5031 N   0  0  0  0  0  0  0  0  0  0  0  0
   -4.7434   -3.1772    0.6008 C   0  0  0  0  0  0  0  0  0  0  0  0
   -4.1597   -1.8423    0.8168 C   0  0  0  0  0  0  0  0  0  0  0  0
   -3.4030   -0.6841    0.9961 C   0  0  0  0  0  0  0  0  0  0  0  0
   -3.6610    0.2865   -0.0005 C   0  0  0  0  0  0  0  0  0  0  0  0
   -2.8976    0.7401   -1.2394 C   0  0  0  0  0  0  0  0  0  0  0  0
   -2.3007   -0.3223   -2.0046 N   0  0  0  0  0  0  0  0  0  0  0  0
   -2.3704   -0.1474   -3.4260 C   0  0  0  0  0  0  0  0  0  0  0  0
   -1.1094    0.3936   -4.0388 C   0  0  0  0  0  0  0  0  0  0  0  0
   -0.3079   -0.6784   -4.6272 N   0  0  0  0  0  0  0  0  0  0  0  0
    0.4096   -1.9147   -4.7583 C   0  0  0  0  0  0  0  0  0  0  0  0
   -0.4408   -2.5409   -5.4231 O   0  0  0  0  0  0  0  0  0  0  0  0
    1.0909   -3.1506   -4.2886 C   0  0  0  0  0  0  0  0  0  0  0  0
    2.0860   -2.9850   -3.2071 C   0  0  0  0  0  0  0  0  0  0  0  0
    3.4471   -2.9840   -3.1446 N   0  0  0  0  0  0  0  0  0  0  0  0
    4.1644   -1.8063   -3.3348 C   0  0  0  0  0  0  0  0  0  0  0  0
    3.2037   -0.7712   -3.2191 C   0  0  0  0  0  0  0  0  0  0  0  0
    2.5269   -0.9673   -1.9893 C   0  0  0  0  0  0  0  0  0  0  0  0
    2.5112   -0.3320   -0.6591 C   0  0  0  0  0  0  0  0  0  0  0  0
    1.2863    0.4231   -0.3812 N   0  0  0  0  0  0  0  0  0  0  0  0
    0.5489   -0.1347    0.7156 C   0  0  0  0  0  0  0  0  0  0  0  0
    0.3535    0.7887    1.8708 C   0  0  0  0  0  0  0  0  0  0  0  0
   -0.6849    1.7306    1.7610 N   0  0  0  0  0  0  0  0  0  0  0  0
   -1.4087    2.0489    2.9446 C   0  0  0  0  0  0  0  0  0  0  0  0
   -1.8013    3.5119    3.0873 C   0  0  0  0  0  0  0  0  0  0  0  0
   -1.3004    4.6792    3.7159 C   0  0  0  0  0  0  0  0  0  0  0  0
   -0.4650    5.3952    2.8541 C   0  0  0  0  0  0  0  0  0  0  0  0
    0.7411    5.7113    2.0278 C   0  0  0  0  0  0  0  0  0  0  0  0
    1.9838    5.3662    2.7117 N   0  0  0  0  0  0  0  0  0  0  0  0
    1.9042    5.2284    4.1163 C   0  0  0  0  0  0  0  0  0  0  0  0
    1.7460    3.8610    4.6562 C   0  0  0  0  0  0  0  0  0  0  0  0
    2.9718    3.2243    5.1409 N   0  0  0  0  0  0  0  0  0  0  0  0
    2.5902    1.8152    5.2438 C   0  0  0  0  0  0  0  0  0  0  0  0
    3.7007    0.8896    5.4295 C   0  0  0  0  0  0  0  0  0  0  0  0
    4.9020    0.2257    5.1759 C   0  0  0  0  0  0  0  0  0  0  0  0
    4.7462   -0.7703    4.1785 C   0  0  0  0  0  0  0  0  0  0  0  0
    5.0281   -0.8607    2.6907 C   0  0  0  0  0  0  0  0  0  0  0  0
    6.1819   -1.7132    2.4129 N   0  0  0  0  0  0  0  0  0  0  0  0
    7.0689   -1.1311    1.4357 C   0  0  0  0  0  0  0  0  0  0  0  0
    7.1782   -1.9505    0.1759 C   0  0  0  0  0  0  0  0  0  0  0  0
    6.2436   -1.5036   -0.8544 N   0  0  0  0  0  0  0  0  0  0  0  0
    6.1469   -2.5183   -1.8675 C   0  0  0  0  0  0  0  0  0  0  0  0
    5.6265   -1.9765   -3.1947 C   0  0  0  0  0  0  0  0  0  0  0  0
    3.9289   -1.6590    4.8876 N   0  0  0  0  0  0  0  0  0  0  0  0
    2.7002   -1.2052    5.2350 C   0  0  0  0  0  0  0  0  0  0  0  0
    1.3120   -0.9645    5.4525 C   0  0  0  0  0  0  0  0  0  0  0  0
    2.5862    0.1467    5.1764 N   0  0  0  0  0  0  0  0  0  0  0  0
   -0.8794    5.3571    1.5591 N   0  0  0  0  0  0  0  0  0  0  0  0
   -2.1516    4.9838    1.2653 C   0  0  0  0  0  0  0  0  0  0  0  0
   -1.5478    5.4316    0.0045 C   0  0  0  0  0  0  0  0  0  0  0  0
   -2.6933    5.6065   -0.9525 C   0  0  0  0  0  0  0  0  0  0  0  0
   -2.0416    5.3495   -1.9628 O   0  0  0  0  0  0  0  0  0  0  0  0
   -3.9908    5.5116   -1.7028 C   0  0  0  0  0  0  0  0  0  0  0  0
   -4.2920    4.1703   -2.1243 N   0  0  0  0  0  0  0  0  0  0  0  0
   -5.6151    3.7251   -1.7752 C   0  0  0  0  0  0  0  0  0  0  0  0
   -6.1848    2.7264   -2.7621 C   0  0  0  0  0  0  0  0  0  0  0  0
   -7.2456    1.9399   -2.1993 N   0  0  0  0  0  0  0  0  0  0  0  0
   -7.4622    0.6796   -2.8505 C   0  0  0  0  0  0  0  0  0  0  0  0
   -7.3224   -0.4890   -1.9154 C   0  0  0  0  0  0  0  0  0  0  0  0
   -7.2307   -1.3004   -2.8337 O   0  0  0  0  0  0  0  0  0  0  0  0
   -6.6523   -1.3428   -0.8694 C   0  0  0  0  0  0  0  0  0  0  0  0
   -5.8613   -0.4937    0.0785 C   0  0  0  0  0  0  0  0  0  0  0  0
   -5.2593   -1.7098    0.0289 N   0  0  0  0  0  0  0  0  0  0  0  0
   -5.0034    0.5366    0.3247 N   0  0  0  0  0  0  0  0  0  0  0  0
   -2.6783    4.1394    2.1916 N   0  0  0  0  0  0  0  0  0  0  0  0
    2.0599   -2.2770   -2.0461 N   0  0  0  0  0  0  0  0  0  0  0  0
   -0.7463   -3.7927    5.3009 H   0  0  0  0  0  0  0  0  0  0  0  0
    0.2023   -3.8609    3.7509 H   0  0  0  0  0  0  0  0  0  0  0  0
   -1.2347   -1.7649    3.3058 H   0  0  0  0  0  0  0  0  0  0  0  0
   -1.6991   -4.6055    2.8278 H   0  0  0  0  0  0  0  0  0  0  0  0
   -1.7055   -3.2291    1.7032 H   0  0  0  0  0  0  0  0  0  0  0  0
   -3.9758   -2.5397    2.8975 H   0  0  0  0  0  0  0  0  0  0  0  0
   -3.8964   -4.1849    3.5471 H   0  0  0  0  0  0  0  0  0  0  0  0
   -3.3728   -4.6932    1.0477 H   0  0  0  0  0  0  0  0  0  0  0  0
   -5.8117   -3.1849    0.8506 H   0  0  0  0  0  0  0  0  0  0  0  0
   -4.5211   -3.5809   -0.4196 H   0  0  0  0  0  0  0  0  0  0  0  0
   -2.7216   -0.5767    1.8466 H   0  0  0  0  0  0  0  0  0  0  0  0
   -2.1799    1.5667   -1.0009 H   0  0  0  0  0  0  0  0  0  0  0  0
   -3.5435    1.2202   -1.9921 H   0  0  0  0  0  0  0  0  0  0  0  0
   -2.6714   -1.2327   -1.6738 H   0  0  0  0  0  0  0  0  0  0  0  0
   -2.5731   -1.1246   -3.8906 H   0  0  0  0  0  0  0  0  0  0  0  0
   -3.2141    0.5440   -3.6551 H   0  0  0  0  0  0  0  0  0  0  0  0
   -1.2980    1.1156   -4.8467 H   0  0  0  0  0  0  0  0  0  0  0  0
   -0.5103    0.9348   -3.2670 H   0  0  0  0  0  0  0  0  0  0  0  0
   -1.0588   -0.9287   -5.3217 H   0  0  0  0  0  0  0  0  0  0  0  0
    1.4882   -3.5886   -5.2322 H   0  0  0  0  0  0  0  0  0  0  0  0
    0.2785   -3.8842   -4.0326 H   0  0  0  0  0  0  0  0  0  0  0  0
    2.9793   -0.0057   -3.9671 H   0  0  0  0  0  0  0  0  0  0  0  0
    3.3160    0.4278   -0.4579 H   0  0  0  0  0  0  0  0  0  0  0  0
    2.6811   -0.9435    0.2411 H   0  0  0  0  0  0  0  0  0  0  0  0
    1.4260    1.4405   -0.3485 H   0  0  0  0  0  0  0  0  0  0  0  0
    1.1552   -0.9956    1.1011 H   0  0  0  0  0  0  0  0  0  0  0  0
   -0.3671   -0.5832    0.3143 H   0  0  0  0  0  0  0  0  0  0  0  0
    1.3171    1.3408    2.0105 H   0  0  0  0  0  0  0  0  0  0  0  0
    0.1194    0.1355    2.7498 H   0  0  0  0  0  0  0  0  0  0  0  0
   -0.6632    2.4112    1.0089 H   0  0  0  0  0  0  0  0  0  0  0  0
   -2.2764    1.3693    3.1543 H   0  0  0  0  0  0  0  0  0  0  0  0
   -0.7095    1.6966    3.7363 H   0  0  0  0  0  0  0  0  0  0  0  0
   -1.4551    4.9822    4.7539 H   0  0  0  0  0  0  0  0  0  0  0  0
    0.6877    6.7825    1.7898 H   0  0  0  0  0  0  0  0  0  0  0  0
    0.8015    5.0594    1.1192 H   0  0  0  0  0  0  0  0  0  0  0  0
    2.7580    5.9470    2.3474 H   0  0  0  0  0  0  0  0  0  0  0  0
    2.8271    5.6767    4.5641 H   0  0  0  0  0  0  0  0  0  0  0  0
    1.0650    5.8721    4.4820 H   0  0  0  0  0  0  0  0  0  0  0  0
    1.0523    3.7816    5.5317 H   0  0  0  0  0  0  0  0  0  0  0  0
    1.4217    3.2025    3.8096 H   0  0  0  0  0  0  0  0  0  0  0  0
    3.6854    3.2749    4.3750 H   0  0  0  0  0  0  0  0  0  0  0  0
    1.8840    1.7231    6.0687 H   0  0  0  0  0  0  0  0  0  0  0  0
    2.1499    1.6373    4.2323 H   0  0  0  0  0  0  0  0  0  0  0  0
    5.8238    0.4714    5.7082 H   0  0  0  0  0  0  0  0  0  0  0  0
    4.2090   -1.2531    2.0786 H   0  0  0  0  0  0  0  0  0  0  0  0
    5.2371    0.0890    2.1873 H   0  0  0  0  0  0  0  0  0  0  0  0
    6.6565   -1.9487    3.3077 H   0  0  0  0  0  0  0  0  0  0  0  0
    8.0858   -1.1163    1.9037 H   0  0  0  0  0  0  0  0  0  0  0  0
    6.7401   -0.1035    1.1751 H   0  0  0  0  0  0  0  0  0  0  0  0
    6.9883   -3.0366    0.3690 H   0  0  0  0  0  0  0  0  0  0  0  0
    8.2003   -1.8792   -0.2677 H   0  0  0  0  0  0  0  0  0  0  0  0
    6.5301   -0.5868   -1.2411 H   0  0  0  0  0  0  0  0  0  0  0  0
    5.4087   -3.2698   -1.5148 H   0  0  0  0  0  0  0  0  0  0  0  0
    7.0903   -3.0401   -2.0813 H   0  0  0  0  0  0  0  0  0  0  0  0
    6.2293   -1.0260   -3.1915 H   0  0  0  0  0  0  0  0  0  0  0  0
    6.1363   -2.4632   -4.0699 H   0  0  0  0  0  0  0  0  0  0  0  0
    0.8236   -0.1186    4.9972 H   0  0  0  0  0  0  0  0  0  0  0  0
    1.1091   -0.9147    6.5527 H   0  0  0  0  0  0  0  0  0  0  0  0
   -0.9047    4.6662   -0.4863 H   0  0  0  0  0  0  0  0  0  0  0  0
   -1.0581    6.3963    0.1626 H   0  0  0  0  0  0  0  0  0  0  0  0
   -3.9571    6.2489   -2.5154 H   0  0  0  0  0  0  0  0  0  0  0  0
   -4.7780    5.8681   -0.9912 H   0  0  0  0  0  0  0  0  0  0  0  0
   -4.2496    4.1712   -3.1781 H   0  0  0  0  0  0  0  0  0  0  0  0
   -6.3027    4.5964   -1.7500 H   0  0  0  0  0  0  0  0  0  0  0  0
   -5.6013    3.3102   -0.7566 H   0  0  0  0  0  0  0  0  0  0  0  0
   -6.6308    3.3338   -3.5886 H   0  0  0  0  0  0  0  0  0  0  0  0
   -5.3876    2.1219   -3.2348 H   0  0  0  0  0  0  0  0  0  0  0  0
   -7.2679    1.9096   -1.1683 H   0  0  0  0  0  0  0  0  0  0  0  0
   -6.7194    0.6187   -3.6858 H   0  0  0  0  0  0  0  0  0  0  0  0
   -8.4617    0.5677   -3.3044 H   0  0  0  0  0  0  0  0  0  0  0  0
   -6.0261   -2.0417   -1.4383 H   0  0  0  0  0  0  0  0  0  0  0  0
   -7.4476   -1.8067   -0.2729 H   0  0  0  0  0  0  0  0  0  0  0  0
  1  2  2  0
  2  3  1  0
  3  4  1  0
  4  5  1  0
  5  6  1  0
  6  7  1  0
  7  8  1  0
  8  9  1  0
  9 10  2  0
 10 11  1  0
 11 12  1  0
 12 13  1  0
 13 14  1  0
 14 15  1  0
 15 16  1  0
 16 17  1  0
 17 18  2  0
 17 19  1  0
 19 20  1  0
 20 21  2  0
 21 22  1  0
 22 23  2  0
 23 24  1  0
 24 25  1  0
 25 26  1  0
 26 27  1  0
 27 28  1  0
 28 29  1  0
 29 30  1  0
 30 31  1  0
 31 32  2  0
 32 33  1  0
 33 34  1  0
 34 35  1  0
 35 36  1  0
 36 37  1  0
 37 38  1  0
 38 39  1  0
 39 40  1  0
 40 41  1  0
 41 42  2  0
 42 43  1  0
 43 44  1  0
 44 45  1  0
 45 46  1  0
 46 47  1  0
 47 48  1  0
 48 49  1  0
 42 50  1  0
 50 51  2  0
 51 52  1  0
 51 53  1  0
 33 54  2  0
 54 55  1  0
 55 56  1  0
 56 57  1  0
 57 58  2  0
 57 59  1  0
 59 60  1  0
 60 61  1  0
 61 62  1  0
 62 63  1  0
 63 64  1  0
 64 65  1  0
 65 66  2  0
 65 67  1  0
 67 68  1  0
 68 69  2  0
 68 70  1  0
 55 71  2  0
 24 72  2  0
 52  2  1  0
 69  9  1  0
 70 11  2  0
 72 20  1  0
 49 22  1  0
 71 31  1  0
 53 40  2  0
  3 73  1  0
  3 74  1  0
  4 75  1  0
  5 76  1  0
  5 77  1  0
  6 78  1  0
  6 79  1  0
  7 80  1  0
  8 81  1  0
  8 82  1  0
 10 83  1  0
 12 84  1  0
 12 85  1  0
 13 86  1  0
 14 87  1  0
 14 88  1  0
 15 89  1  0
 15 90  1  0
 16 91  1  0
 19 92  1  0
 19 93  1  0
 23 94  1  0
 25 95  1  0
 25 96  1  0
 26 97  1  0
 27 98  1  0
 27 99  1  0
 28100  1  0
 28101  1  0
 29102  1  0
 30103  1  0
 30104  1  0
 32105  1  0
 34106  1  0
 34107  1  0
 35108  1  0
 36109  1  0
 36110  1  0
 37111  1  0
 37112  1  0
 38113  1  0
 39114  1  0
 39115  1  0
 41116  1  0
 43117  1  0
 43118  1  0
 44119  1  0
 45120  1  0
 45121  1  0
 46122  1  0
 46123  1  0
 47124  1  0
 48125  1  0
 48126  1  0
 49127  1  0
 49128  1  0
 52129  1  0
 52130  1  0
 56131  1  0
 56132  1  0
 59133  1  0
 59134  1  0
 60135  1  0
 61136  1  0
 61137  1  0
 62138  1  0
 62139  1  0
 63140  1  0
 64141  1  0
 64142  1  0
 67143  1  0
 67144  1  0
M  END
