
     RDKit          3D

135141  0  0  0  0  0  0  0  0999 V2000
   -5.4654   -2.0417   -5.4464 O   0  0  0  0  0  0  0  0  0  0  0  0
   -4.4990   -2.0233   -4.6378 C   0  0  0  0  0  0  0  0  0  0  0  0
   -4.7519   -2.6242   -3.4048 C   0  0  0  0  0  0  0  0  0  0  0  0
   -3.6125   -3.4392   -3.1323 C   0  0  0  0  0  0  0  0  0  0  0  0
   -3.6802   -4.9642   -3.2419 C   0  0  0  0  0  0  0  0  0  0  0  0
   -3.7734   -5.5803   -1.9180 N   0  0  0  0  0  0  0  0  0  0  0  0
   -2.6095   -6.3459   -1.5639 C   0  0  0  0  0  0  0  0  0  0  0  0
   -2.2885   -6.4120   -0.1179 C   0  0  0  0  0  0  0  0  0  0  0  0
   -0.9090   -6.5331    0.2175 N   0  0  0  0  0  0  0  0  0  0  0  0
   -0.4775   -5.8816    1.4181 C   0  0  0  0  0  0  0  0  0  0  0  0
    0.8004   -5.1143    1.3370 N   0  0  0  0  0  0  0  0  0  0  0  0
    1.0191   -3.6973    1.0697 C   0  0  0  0  0  0  0  0  0  0  0  0
    1.8266   -3.7045   -0.1100 C   0  0  0  0  0  0  0  0  0  0  0  0
    3.0340   -4.3516    0.1440 C   0  0  0  0  0  0  0  0  0  0  0  0
    3.8911   -4.3699   -0.7873 O   0  0  0  0  0  0  0  0  0  0  0  0
    3.1164   -4.7836    1.4603 N   0  0  0  0  0  0  0  0  0  0  0  0
    3.8097   -4.2123    2.6445 C   0  0  0  0  0  0  0  0  0  0  0  0
    4.2832   -2.8925    2.5869 N   0  0  0  0  0  0  0  0  0  0  0  0
    5.5022   -2.5732    1.9788 C   0  0  0  0  0  0  0  0  0  0  0  0
    5.6601   -1.0530    2.0066 C   0  0  0  0  0  0  0  0  0  0  0  0
    5.6912   -0.4689    0.7026 N   0  0  0  0  0  0  0  0  0  0  0  0
    4.4570   -0.5202   -0.0356 C   0  0  0  0  0  0  0  0  0  0  0  0
    3.7028    0.7717   -0.0725 N   0  0  0  0  0  0  0  0  0  0  0  0
    2.5537    1.2817    0.6623 C   0  0  0  0  0  0  0  0  0  0  0  0
    1.4065    0.8647   -0.0925 C   0  0  0  0  0  0  0  0  0  0  0  0
    1.7449    0.8079   -1.4557 C   0  0  0  0  0  0  0  0  0  0  0  0
    1.3076   -0.0997   -2.2282 O   0  0  0  0  0  0  0  0  0  0  0  0
    2.5138    1.9279   -1.7681 N   0  0  0  0  0  0  0  0  0  0  0  0
    1.9856    3.1970   -2.2697 C   0  0  0  0  0  0  0  0  0  0  0  0
    0.6409    3.5690   -2.0127 N   0  0  0  0  0  0  0  0  0  0  0  0
   -0.4396    2.8731   -2.5320 C   0  0  0  0  0  0  0  0  0  0  0  0
   -0.4672    2.5392   -3.9892 C   0  0  0  0  0  0  0  0  0  0  0  0
   -1.8159    2.0315   -4.2569 N   0  0  0  0  0  0  0  0  0  0  0  0
   -1.7574    0.6488   -4.5481 C   0  0  0  0  0  0  0  0  0  0  0  0
   -3.1287    0.0652   -4.4552 C   0  0  0  0  0  0  0  0  0  0  0  0
   -3.2792   -1.3950   -4.6408 N   0  0  0  0  0  0  0  0  0  0  0  0
   -2.2939   -2.3347   -4.3514 C   0  0  0  0  0  0  0  0  0  0  0  0
   -1.3837   -2.6866   -5.1854 O   0  0  0  0  0  0  0  0  0  0  0  0
   -2.3921   -2.6832   -3.0029 N   0  0  0  0  0  0  0  0  0  0  0  0
   -1.5800   -2.1607   -1.8408 C   0  0  0  0  0  0  0  0  0  0  0  0
   -2.2595   -2.1813   -0.5867 N   0  0  0  0  0  0  0  0  0  0  0  0
   -2.9955   -0.9868   -0.3507 C   0  0  0  0  0  0  0  0  0  0  0  0
   -4.0036   -1.0345    0.7601 C   0  0  0  0  0  0  0  0  0  0  0  0
   -4.4868    0.2799    0.8519 N   0  0  0  0  0  0  0  0  0  0  0  0
   -4.5348    0.9459    2.1167 C   0  0  0  0  0  0  0  0  0  0  0  0
   -3.9537    2.3170    2.1437 N   0  0  0  0  0  0  0  0  0  0  0  0
   -3.2382    3.0107    1.1712 C   0  0  0  0  0  0  0  0  0  0  0  0
   -3.6649    3.7057    0.2004 O   0  0  0  0  0  0  0  0  0  0  0  0
   -1.8969    2.6307    1.2677 C   0  0  0  0  0  0  0  0  0  0  0  0
   -1.5963    2.1636    2.5890 C   0  0  0  0  0  0  0  0  0  0  0  0
   -1.0866    0.7328    2.8752 C   0  0  0  0  0  0  0  0  0  0  0  0
   -1.3929    0.2616    4.1924 N   0  0  0  0  0  0  0  0  0  0  0  0
   -0.4568   -0.7668    4.5590 C   0  0  0  0  0  0  0  0  0  0  0  0
   -0.6530   -2.0540    3.8087 C   0  0  0  0  0  0  0  0  0  0  0  0
    0.5510   -2.6253    3.2891 N   0  0  0  0  0  0  0  0  0  0  0  0
    0.7924   -2.4102    1.9076 C   0  0  0  0  0  0  0  0  0  0  0  0
   -2.1793    3.1675    3.4715 N   0  0  0  0  0  0  0  0  0  0  0  0
   -1.5742    4.2651    4.2565 C   0  0  0  0  0  0  0  0  0  0  0  0
   -0.1073    4.2937    4.2226 N   0  0  0  0  0  0  0  0  0  0  0  0
    0.4608    4.9185    3.0846 C   0  0  0  0  0  0  0  0  0  0  0  0
    1.8000    4.2644    2.7633 C   0  0  0  0  0  0  0  0  0  0  0  0
    1.7883    3.5028    1.5484 N   0  0  0  0  0  0  0  0  0  0  0  0
    2.4897    2.2884    1.8319 C   0  0  0  0  0  0  0  0  0  0  0  0
   -3.5577    2.9903    3.3111 C   0  0  0  0  0  0  0  0  0  0  0  0
   -4.4871    3.4478    4.0935 O   0  0  0  0  0  0  0  0  0  0  0  0
    3.7475    1.6658   -1.1575 C   0  0  0  0  0  0  0  0  0  0  0  0
    4.8686    2.1160   -1.6214 O   0  0  0  0  0  0  0  0  0  0  0  0
    2.0599   -5.7053    1.4968 C   0  0  0  0  0  0  0  0  0  0  0  0
    2.3501   -6.9663    1.5365 O   0  0  0  0  0  0  0  0  0  0  0  0
   -5.6720   -2.4682   -2.8562 H   0  0  0  0  0  0  0  0  0  0  0  0
   -4.3504   -5.4062   -3.9727 H   0  0  0  0  0  0  0  0  0  0  0  0
   -2.7686   -5.4769   -3.6487 H   0  0  0  0  0  0  0  0  0  0  0  0
   -4.6608   -6.1085   -1.9026 H   0  0  0  0  0  0  0  0  0  0  0  0
   -2.6601   -7.3788   -1.9776 H   0  0  0  0  0  0  0  0  0  0  0  0
   -1.7399   -5.8684   -2.0830 H   0  0  0  0  0  0  0  0  0  0  0  0
   -2.8198   -7.2988    0.3117 H   0  0  0  0  0  0  0  0  0  0  0  0
   -2.6970   -5.5223    0.4043 H   0  0  0  0  0  0  0  0  0  0  0  0
   -0.2948   -6.2345   -0.5676 H   0  0  0  0  0  0  0  0  0  0  0  0
   -0.7050   -6.3821    2.3671 H   0  0  0  0  0  0  0  0  0  0  0  0
   -1.3785   -5.2099    1.5265 H   0  0  0  0  0  0  0  0  0  0  0  0
    1.6274   -3.4229   -1.1227 H   0  0  0  0  0  0  0  0  0  0  0  0
    3.2268   -4.1583    3.5722 H   0  0  0  0  0  0  0  0  0  0  0  0
    4.7436   -4.7751    2.9098 H   0  0  0  0  0  0  0  0  0  0  0  0
    3.7303   -2.1426    3.0090 H   0  0  0  0  0  0  0  0  0  0  0  0
    5.6435   -2.8696    0.9321 H   0  0  0  0  0  0  0  0  0  0  0  0
    6.3306   -3.0642    2.5506 H   0  0  0  0  0  0  0  0  0  0  0  0
    6.6179   -0.8310    2.4982 H   0  0  0  0  0  0  0  0  0  0  0  0
    4.8715   -0.5805    2.6446 H   0  0  0  0  0  0  0  0  0  0  0  0
    6.0081    0.5105    0.7962 H   0  0  0  0  0  0  0  0  0  0  0  0
    3.9470   -1.3157    0.5797 H   0  0  0  0  0  0  0  0  0  0  0  0
    4.4695   -1.1243   -0.9421 H   0  0  0  0  0  0  0  0  0  0  0  0
    0.5933    0.1888    0.1818 H   0  0  0  0  0  0  0  0  0  0  0  0
    2.0444    3.3055   -3.3875 H   0  0  0  0  0  0  0  0  0  0  0  0
    2.4006    4.1466   -1.8960 H   0  0  0  0  0  0  0  0  0  0  0  0
    0.4175    3.9675   -1.0961 H   0  0  0  0  0  0  0  0  0  0  0  0
   -1.3391    3.5328   -2.3844 H   0  0  0  0  0  0  0  0  0  0  0  0
   -0.7464    1.9323   -2.0069 H   0  0  0  0  0  0  0  0  0  0  0  0
    0.2844    1.7645   -4.2186 H   0  0  0  0  0  0  0  0  0  0  0  0
   -0.2505    3.4018   -4.6531 H   0  0  0  0  0  0  0  0  0  0  0  0
   -2.4806    2.2489   -3.4962 H   0  0  0  0  0  0  0  0  0  0  0  0
   -1.0123    0.1723   -3.8977 H   0  0  0  0  0  0  0  0  0  0  0  0
   -1.3531    0.5362   -5.5873 H   0  0  0  0  0  0  0  0  0  0  0  0
   -3.5691    0.6820   -5.2495 H   0  0  0  0  0  0  0  0  0  0  0  0
   -3.4679    0.4886   -3.4997 H   0  0  0  0  0  0  0  0  0  0  0  0
   -0.6544   -2.7073   -1.6731 H   0  0  0  0  0  0  0  0  0  0  0  0
   -1.3491   -1.1012   -1.9112 H   0  0  0  0  0  0  0  0  0  0  0  0
   -2.8068   -3.0573   -0.4881 H   0  0  0  0  0  0  0  0  0  0  0  0
   -3.4882   -0.6062   -1.2781 H   0  0  0  0  0  0  0  0  0  0  0  0
   -2.2570   -0.1932   -0.0699 H   0  0  0  0  0  0  0  0  0  0  0  0
   -4.7605   -1.8084    0.4822 H   0  0  0  0  0  0  0  0  0  0  0  0
   -3.5074   -1.3249    1.6953 H   0  0  0  0  0  0  0  0  0  0  0  0
   -5.1365    0.6125    0.1327 H   0  0  0  0  0  0  0  0  0  0  0  0
   -4.0778    0.1837    2.7371 H   0  0  0  0  0  0  0  0  0  0  0  0
   -5.6558    0.9486    2.1988 H   0  0  0  0  0  0  0  0  0  0  0  0
   -1.2374    3.0135    0.4941 H   0  0  0  0  0  0  0  0  0  0  0  0
   -1.5655   -0.0568    2.3092 H   0  0  0  0  0  0  0  0  0  0  0  0
    0.0282    0.6770    2.8504 H   0  0  0  0  0  0  0  0  0  0  0  0
   -2.3413   -0.1087    4.3313 H   0  0  0  0  0  0  0  0  0  0  0  0
   -0.4184   -0.8958    5.6586 H   0  0  0  0  0  0  0  0  0  0  0  0
    0.5565   -0.3865    4.2712 H   0  0  0  0  0  0  0  0  0  0  0  0
   -1.3814   -1.9759    2.9785 H   0  0  0  0  0  0  0  0  0  0  0  0
   -1.0863   -2.7856    4.5310 H   0  0  0  0  0  0  0  0  0  0  0  0
    1.3629   -2.6134    3.9183 H   0  0  0  0  0  0  0  0  0  0  0  0
   -0.0941   -1.8447    1.5627 H   0  0  0  0  0  0  0  0  0  0  0  0
    1.6221   -1.7329    1.9679 H   0  0  0  0  0  0  0  0  0  0  0  0
   -1.6961    5.2924    3.9191 H   0  0  0  0  0  0  0  0  0  0  0  0
   -1.5747    4.1249    5.3677 H   0  0  0  0  0  0  0  0  0  0  0  0
    0.3137    3.3980    4.5148 H   0  0  0  0  0  0  0  0  0  0  0  0
    0.7165    5.9671    3.3903 H   0  0  0  0  0  0  0  0  0  0  0  0
   -0.1847    5.0289    2.2081 H   0  0  0  0  0  0  0  0  0  0  0  0
    2.1179    3.6687    3.6570 H   0  0  0  0  0  0  0  0  0  0  0  0
    2.6099    5.0290    2.6430 H   0  0  0  0  0  0  0  0  0  0  0  0
    2.2563    3.9872    0.7626 H   0  0  0  0  0  0  0  0  0  0  0  0
    2.2726    1.8230    2.7996 H   0  0  0  0  0  0  0  0  0  0  0  0
    3.4903    2.7436    2.0550 H   0  0  0  0  0  0  0  0  0  0  0  0
  1  2  2  0
  2  3  1  0
  3  4  2  0
  4  5  1  0
  5  6  1  0
  6  7  1  0
  7  8  1  0
  8  9  1  0
  9 10  1  0
 10 11  1  0
 11 12  1  0
 12 13  2  0
 13 14  1  0
 14 15  2  0
 14 16  1  0
 16 17  1  0
 17 18  1  0
 18 19  1  0
 19 20  1  0
 20 21  1  0
 21 22  1  0
 22 23  1  0
 23 24  1  0
 24 25  2  0
 25 26  1  0
 26 27  2  0
 26 28  1  0
 28 29  1  0
 29 30  1  0
 30 31  1  0
 31 32  1  0
 32 33  1  0
 33 34  1  0
 34 35  1  0
 35 36  1  0
 36 37  1  0
 37 38  2  0
 37 39  1  0
 39 40  1  0
 40 41  1  0
 41 42  1  0
 42 43  1  0
 43 44  1  0
 44 45  1  0
 45 46  1  0
 46 47  1  0
 47 48  2  0
 47 49  1  0
 49 50  2  0
 50 51  1  0
 51 52  1  0
 52 53  1  0
 53 54  1  0
 54 55  1  0
 55 56  1  0
 50 57  1  0
 57 58  1  0
 58 59  1  0
 59 60  1  0
 60 61  1  0
 61 62  1  0
 62 63  1  0
 57 64  1  0
 64 65  2  0
 28 66  1  0
 66 67  2  0
 16 68  1  0
 68 69  2  0
 36  2  1  0
 64 46  1  0
 39  4  1  0
 68 11  1  0
 56 12  1  0
 66 23  1  0
 63 24  1  0
  3 70  1  0
  5 71  1  0
  5 72  1  0
  6 73  1  0
  7 74  1  0
  7 75  1  0
  8 76  1  0
  8 77  1  0
  9 78  1  0
 10 79  1  0
 10 80  1  0
 13 81  1  0
 17 82  1  0
 17 83  1  0
 18 84  1  0
 19 85  1  0
 19 86  1  0
 20 87  1  0
 20 88  1  0
 21 89  1  0
 22 90  1  0
 22 91  1  0
 25 92  1  0
 29 93  1  0
 29 94  1  0
 30 95  1  0
 31 96  1  0
 31 97  1  0
 32 98  1  0
 32 99  1  0
 33100  1  0
 34101  1  0
 34102  1  0
 35103  1  0
 35104  1  0
 40105  1  0
 40106  1  0
 41107  1  0
 42108  1  0
 42109  1  0
 43110  1  0
 43111  1  0
 44112  1  0
 45113  1  0
 45114  1  0
 49115  1  0
 51116  1  0
 51117  1  0
 52118  1  0
 53119  1  0
 53120  1  0
 54121  1  0
 54122  1  0
 55123  1  0
 56124  1  0
 56125  1  0
 58126  1  0
 58127  1  0
 59128  1  0
 60129  1  0
 60130  1  0
 61131  1  0
 61132  1  0
 62133  1  0
 63134  1  0
 63135  1  0
M  END
