
     RDKit          3D

127133  0  0  0  0  0  0  0  0999 V2000
    4.3214   -3.2880    1.7827 C   0  0  0  0  0  0  0  0  0  0  0  0
    4.7537   -2.4543    2.7737 N   0  0  0  0  0  0  0  0  0  0  0  0
    4.6087   -1.0998    2.5077 C   0  0  0  0  0  0  0  0  0  0  0  0
    3.8709    0.0782    3.0773 C   0  0  0  0  0  0  0  0  0  0  0  0
    2.9703    0.7490    2.1968 N   0  0  0  0  0  0  0  0  0  0  0  0
    3.1234    2.1736    2.1429 C   0  0  0  0  0  0  0  0  0  0  0  0
    1.8559    2.9385    2.3853 C   0  0  0  0  0  0  0  0  0  0  0  0
    0.6701    2.2674    1.9325 N   0  0  0  0  0  0  0  0  0  0  0  0
   -0.2228    1.8644    2.9850 C   0  0  0  0  0  0  0  0  0  0  0  0
   -1.6871    2.2518    2.6790 C   0  0  0  0  0  0  0  0  0  0  0  0
   -2.6748    1.3773    2.1316 C   0  0  0  0  0  0  0  0  0  0  0  0
   -3.5643    0.9611    3.0788 N   0  0  0  0  0  0  0  0  0  0  0  0
   -3.2240    1.3867    4.3503 C   0  0  0  0  0  0  0  0  0  0  0  0
   -2.7257    0.7206    5.5988 C   0  0  0  0  0  0  0  0  0  0  0  0
   -2.0308   -0.5217    5.3845 N   0  0  0  0  0  0  0  0  0  0  0  0
   -2.7819   -1.5401    4.7293 C   0  0  0  0  0  0  0  0  0  0  0  0
   -1.9569   -2.1773    3.6251 C   0  0  0  0  0  0  0  0  0  0  0  0
   -2.4025   -3.5102    3.2971 N   0  0  0  0  0  0  0  0  0  0  0  0
   -3.0621   -3.5430    1.9889 C   0  0  0  0  0  0  0  0  0  0  0  0
   -2.9414   -4.8955    1.3414 C   0  0  0  0  0  0  0  0  0  0  0  0
   -3.7583   -5.9998    1.1415 N   0  0  0  0  0  0  0  0  0  0  0  0
   -4.1005   -6.1680   -0.1669 C   0  0  0  0  0  0  0  0  0  0  0  0
   -3.4543   -5.2217   -1.0193 C   0  0  0  0  0  0  0  0  0  0  0  0
   -4.1305   -3.9837   -1.6435 C   0  0  0  0  0  0  0  0  0  0  0  0
   -3.3173   -2.8212   -1.7204 N   0  0  0  0  0  0  0  0  0  0  0  0
   -3.0665   -2.3341   -3.0437 C   0  0  0  0  0  0  0  0  0  0  0  0
   -3.4114   -0.8590   -3.2111 C   0  0  0  0  0  0  0  0  0  0  0  0
   -3.0539   -0.2145   -1.9893 N   0  0  0  0  0  0  0  0  0  0  0  0
   -3.0141    1.2081   -2.0268 C   0  0  0  0  0  0  0  0  0  0  0  0
   -2.5096    1.7974   -3.3178 C   0  0  0  0  0  0  0  0  0  0  0  0
   -2.9103    2.7803   -4.2080 N   0  0  0  0  0  0  0  0  0  0  0  0
   -2.1174    3.8883   -4.2744 C   0  0  0  0  0  0  0  0  0  0  0  0
   -1.0579    3.8381   -3.3206 C   0  0  0  0  0  0  0  0  0  0  0  0
   -1.0144    4.7082   -2.0485 C   0  0  0  0  0  0  0  0  0  0  0  0
   -2.2022    4.7468   -1.2688 N   0  0  0  0  0  0  0  0  0  0  0  0
   -2.0970    5.9084   -0.4169 C   0  0  0  0  0  0  0  0  0  0  0  0
   -2.9431    5.6706    0.8004 C   0  0  0  0  0  0  0  0  0  0  0  0
   -2.1072    5.4469    1.9365 N   0  0  0  0  0  0  0  0  0  0  0  0
   -2.8021    4.8493    3.0821 C   0  0  0  0  0  0  0  0  0  0  0  0
   -2.5200    3.3519    3.1971 C   0  0  0  0  0  0  0  0  0  0  0  0
   -3.3380    2.7300    4.1397 N   0  0  0  0  0  0  0  0  0  0  0  0
   -0.3294    2.6229   -3.7459 C   0  0  0  0  0  0  0  0  0  0  0  0
    1.0658    2.1236   -4.1404 C   0  0  0  0  0  0  0  0  0  0  0  0
    1.6924    1.3128   -3.1391 N   0  0  0  0  0  0  0  0  0  0  0  0
    3.0831    1.1955   -3.4670 C   0  0  0  0  0  0  0  0  0  0  0  0
    3.6196    0.0234   -2.6544 C   0  0  0  0  0  0  0  0  0  0  0  0
    5.0446   -0.0713   -2.8423 N   0  0  0  0  0  0  0  0  0  0  0  0
    5.6570   -0.1016   -1.5466 C   0  0  0  0  0  0  0  0  0  0  0  0
    5.8532   -1.4488   -0.9541 C   0  0  0  0  0  0  0  0  0  0  0  0
    4.9543   -1.7606    0.2473 C   0  0  0  0  0  0  0  0  0  0  0  0
    5.3778   -1.0701    1.3807 N   0  0  0  0  0  0  0  0  0  0  0  0
    3.7839   -2.5367    0.6913 C   0  0  0  0  0  0  0  0  0  0  0  0
    2.2809   -2.3702    0.3835 C   0  0  0  0  0  0  0  0  0  0  0  0
    1.8296   -3.2422   -0.6575 N   0  0  0  0  0  0  0  0  0  0  0  0
    2.4743   -4.5223   -0.7014 C   0  0  0  0  0  0  0  0  0  0  0  0
    1.5746   -5.4286   -1.5339 C   0  0  0  0  0  0  0  0  0  0  0  0
    0.2369   -4.8907   -1.5953 N   0  0  0  0  0  0  0  0  0  0  0  0
   -0.7293   -5.9362   -1.4535 C   0  0  0  0  0  0  0  0  0  0  0  0
   -2.0319   -5.5101   -0.7705 C   0  0  0  0  0  0  0  0  0  0  0  0
   -1.8743   -5.3299    0.6049 N   0  0  0  0  0  0  0  0  0  0  0  0
   -1.2754    1.5944   -3.8739 N   0  0  0  0  0  0  0  0  0  0  0  0
    4.4530   -4.3674    1.8826 H   0  0  0  0  0  0  0  0  0  0  0  0
    3.1990   -0.2069    3.9314 H   0  0  0  0  0  0  0  0  0  0  0  0
    4.5512    0.8098    3.5885 H   0  0  0  0  0  0  0  0  0  0  0  0
    1.9934    0.4142    2.2188 H   0  0  0  0  0  0  0  0  0  0  0  0
    3.4647    2.4252    1.1067 H   0  0  0  0  0  0  0  0  0  0  0  0
    3.9048    2.5700    2.8174 H   0  0  0  0  0  0  0  0  0  0  0  0
    1.9156    3.9027    1.8187 H   0  0  0  0  0  0  0  0  0  0  0  0
    1.7509    3.2200    3.4586 H   0  0  0  0  0  0  0  0  0  0  0  0
    0.2082    2.7044    1.1178 H   0  0  0  0  0  0  0  0  0  0  0  0
   -0.0740    0.8463    3.3517 H   0  0  0  0  0  0  0  0  0  0  0  0
    0.1828    2.3913    3.8874 H   0  0  0  0  0  0  0  0  0  0  0  0
   -2.8427    1.0191    1.1391 H   0  0  0  0  0  0  0  0  0  0  0  0
   -3.5687    0.4433    6.2852 H   0  0  0  0  0  0  0  0  0  0  0  0
   -2.0103    1.2810    6.1963 H   0  0  0  0  0  0  0  0  0  0  0  0
   -1.0434   -0.4362    5.1203 H   0  0  0  0  0  0  0  0  0  0  0  0
   -2.9410   -2.3568    5.4803 H   0  0  0  0  0  0  0  0  0  0  0  0
   -3.7888   -1.2469    4.4001 H   0  0  0  0  0  0  0  0  0  0  0  0
   -0.8920   -2.1848    3.9684 H   0  0  0  0  0  0  0  0  0  0  0  0
   -1.9697   -1.6051    2.6880 H   0  0  0  0  0  0  0  0  0  0  0  0
   -2.9789   -3.9543    4.0329 H   0  0  0  0  0  0  0  0  0  0  0  0
   -4.1187   -3.2924    2.2760 H   0  0  0  0  0  0  0  0  0  0  0  0
   -2.8040   -2.6849    1.3590 H   0  0  0  0  0  0  0  0  0  0  0  0
   -4.7490   -7.0011   -0.4250 H   0  0  0  0  0  0  0  0  0  0  0  0
   -4.4255   -4.1872   -2.7045 H   0  0  0  0  0  0  0  0  0  0  0  0
   -4.9770   -3.5808   -1.1042 H   0  0  0  0  0  0  0  0  0  0  0  0
   -3.4220   -2.1131   -0.9894 H   0  0  0  0  0  0  0  0  0  0  0  0
   -3.6194   -2.9177   -3.8145 H   0  0  0  0  0  0  0  0  0  0  0  0
   -1.9675   -2.4209   -3.2350 H   0  0  0  0  0  0  0  0  0  0  0  0
   -2.8333   -0.4835   -4.0735 H   0  0  0  0  0  0  0  0  0  0  0  0
   -4.4905   -0.7871   -3.4621 H   0  0  0  0  0  0  0  0  0  0  0  0
   -2.1653   -0.6140   -1.6420 H   0  0  0  0  0  0  0  0  0  0  0  0
   -4.0778    1.4919   -1.8134 H   0  0  0  0  0  0  0  0  0  0  0  0
   -2.4840    1.5959   -1.1322 H   0  0  0  0  0  0  0  0  0  0  0  0
   -2.3638    4.5961   -5.0471 H   0  0  0  0  0  0  0  0  0  0  0  0
   -0.3157    4.3292   -1.2695 H   0  0  0  0  0  0  0  0  0  0  0  0
   -0.5425    5.7036   -2.2336 H   0  0  0  0  0  0  0  0  0  0  0  0
   -2.3426    3.9350   -0.6471 H   0  0  0  0  0  0  0  0  0  0  0  0
   -2.4692    6.7777   -1.0162 H   0  0  0  0  0  0  0  0  0  0  0  0
   -1.0377    6.1361   -0.1851 H   0  0  0  0  0  0  0  0  0  0  0  0
   -3.5322    6.6041    0.9693 H   0  0  0  0  0  0  0  0  0  0  0  0
   -3.6784    4.8710    0.6051 H   0  0  0  0  0  0  0  0  0  0  0  0
   -1.2777    4.9049    1.6482 H   0  0  0  0  0  0  0  0  0  0  0  0
   -3.8292    5.0932    2.8138 H   0  0  0  0  0  0  0  0  0  0  0  0
   -2.3668    5.4501    3.9010 H   0  0  0  0  0  0  0  0  0  0  0  0
    1.7971    2.9776   -4.2123 H   0  0  0  0  0  0  0  0  0  0  0  0
    1.1485    1.7811   -5.1728 H   0  0  0  0  0  0  0  0  0  0  0  0
    1.2774    0.3517   -3.0993 H   0  0  0  0  0  0  0  0  0  0  0  0
    3.2528    0.9372   -4.5231 H   0  0  0  0  0  0  0  0  0  0  0  0
    3.6589    2.1143   -3.2058 H   0  0  0  0  0  0  0  0  0  0  0  0
    3.0754   -0.8922   -2.9301 H   0  0  0  0  0  0  0  0  0  0  0  0
    3.3552    0.2582   -1.5923 H   0  0  0  0  0  0  0  0  0  0  0  0
    5.2616   -0.8837   -3.4456 H   0  0  0  0  0  0  0  0  0  0  0  0
    5.0757    0.5143   -0.8332 H   0  0  0  0  0  0  0  0  0  0  0  0
    6.6618    0.3802   -1.6541 H   0  0  0  0  0  0  0  0  0  0  0  0
    6.8938   -1.7821   -0.8250 H   0  0  0  0  0  0  0  0  0  0  0  0
    5.6048   -2.1282   -1.8196 H   0  0  0  0  0  0  0  0  0  0  0  0
    2.0298   -1.3486   -0.0083 H   0  0  0  0  0  0  0  0  0  0  0  0
    1.6260   -2.3242    1.2582 H   0  0  0  0  0  0  0  0  0  0  0  0
    1.7202   -2.8033   -1.5857 H   0  0  0  0  0  0  0  0  0  0  0  0
    3.4668   -4.3772   -1.1873 H   0  0  0  0  0  0  0  0  0  0  0  0
    2.6293   -4.8990    0.3178 H   0  0  0  0  0  0  0  0  0  0  0  0
    1.9877   -5.3841   -2.5733 H   0  0  0  0  0  0  0  0  0  0  0  0
    1.6231   -6.4793   -1.2214 H   0  0  0  0  0  0  0  0  0  0  0  0
    0.0761   -4.2475   -2.3875 H   0  0  0  0  0  0  0  0  0  0  0  0
   -0.9094   -6.1967   -2.5358 H   0  0  0  0  0  0  0  0  0  0  0  0
   -0.3489   -6.9092   -1.1306 H   0  0  0  0  0  0  0  0  0  0  0  0
  1  2  2  0
  2  3  1  0
  3  4  1  0
  4  5  1  0
  5  6  1  0
  6  7  1  0
  7  8  1  0
  8  9  1  0
  9 10  1  0
 10 11  2  0
 11 12  1  0
 12 13  2  0
 13 14  1  0
 14 15  1  0
 15 16  1  0
 16 17  1  0
 17 18  1  0
 18 19  1  0
 19 20  1  0
 20 21  2  0
 21 22  1  0
 22 23  2  0
 23 24  1  0
 24 25  1  0
 25 26  1  0
 26 27  1  0
 27 28  1  0
 28 29  1  0
 29 30  1  0
 30 31  2  0
 31 32  1  0
 32 33  2  0
 33 34  1  0
 34 35  1  0
 35 36  1  0
 36 37  1  0
 37 38  1  0
 38 39  1  0
 39 40  1  0
 40 41  2  0
 33 42  1  0
 42 43  1  0
 43 44  1  0
 44 45  1  0
 45 46  1  0
 46 47  1  0
 47 48  1  0
 48 49  1  0
 49 50  1  0
 50 51  1  0
 50 52  2  0
 52 53  1  0
 53 54  1  0
 54 55  1  0
 55 56  1  0
 56 57  1  0
 57 58  1  0
 58 59  1  0
 59 60  2  0
 42 61  2  0
 52  1  1  0
 51  3  2  0
 40 10  1  0
 41 13  1  0
 60 20  1  0
 59 23  1  0
 61 30  1  0
  1 62  1  0
  4 63  1  0
  4 64  1  0
  5 65  1  0
  6 66  1  0
  6 67  1  0
  7 68  1  0
  7 69  1  0
  8 70  1  0
  9 71  1  0
  9 72  1  0
 11 73  1  0
 14 74  1  0
 14 75  1  0
 15 76  1  0
 16 77  1  0
 16 78  1  0
 17 79  1  0
 17 80  1  0
 18 81  1  0
 19 82  1  0
 19 83  1  0
 22 84  1  0
 24 85  1  0
 24 86  1  0
 25 87  1  0
 26 88  1  0
 26 89  1  0
 27 90  1  0
 27 91  1  0
 28 92  1  0
 29 93  1  0
 29 94  1  0
 32 95  1  0
 34 96  1  0
 34 97  1  0
 35 98  1  0
 36 99  1  0
 36100  1  0
 37101  1  0
 37102  1  0
 38103  1  0
 39104  1  0
 39105  1  0
 43106  1  0
 43107  1  0
 44108  1  0
 45109  1  0
 45110  1  0
 46111  1  0
 46112  1  0
 47113  1  0
 48114  1  0
 48115  1  0
 49116  1  0
 49117  1  0
 53118  1  0
 53119  1  0
 54120  1  0
 55121  1  0
 55122  1  0
 56123  1  0
 56124  1  0
 57125  1  0
 58126  1  0
 58127  1  0
M  END
