
     RDKit          3D

127133  0  0  0  0  0  0  0  0999 V2000
   -2.9924   -5.4281   -4.8691 I   0  0  0  0  0  0  0  0  0  0  0  0
   -2.3631   -3.9021   -3.5257 C   0  0  0  0  0  0  0  0  0  0  0  0
   -2.8415   -2.5622   -3.4874 C   0  0  0  0  0  0  0  0  0  0  0  0
   -4.0269   -1.8338   -3.0170 C   0  0  0  0  0  0  0  0  0  0  0  0
   -3.8857   -0.9418   -1.7843 C   0  0  0  0  0  0  0  0  0  0  0  0
   -5.1737   -0.3470   -1.5708 N   0  0  0  0  0  0  0  0  0  0  0  0
   -5.2589    1.0335   -1.9699 C   0  0  0  0  0  0  0  0  0  0  0  0
   -6.2375    1.7827   -1.0942 C   0  0  0  0  0  0  0  0  0  0  0  0
   -5.6248    2.8510   -0.3456 N   0  0  0  0  0  0  0  0  0  0  0  0
   -5.0831    2.3797    0.9368 C   0  0  0  0  0  0  0  0  0  0  0  0
   -3.6683    2.7247    1.1506 C   0  0  0  0  0  0  0  0  0  0  0  0
   -2.7771    1.8222    0.5784 N   0  0  0  0  0  0  0  0  0  0  0  0
   -1.4344    2.0064    0.7188 C   0  0  0  0  0  0  0  0  0  0  0  0
   -0.4358    2.7540   -0.0446 C   0  0  0  0  0  0  0  0  0  0  0  0
    0.4736    3.6084    0.6590 N   0  0  0  0  0  0  0  0  0  0  0  0
    1.7688    3.6014   -0.0167 C   0  0  0  0  0  0  0  0  0  0  0  0
    2.4241    4.9433   -0.0603 C   0  0  0  0  0  0  0  0  0  0  0  0
    3.0450    5.2338   -1.3520 N   0  0  0  0  0  0  0  0  0  0  0  0
    4.2995    4.4787   -1.5085 C   0  0  0  0  0  0  0  0  0  0  0  0
    4.0683    3.0683   -1.8288 C   0  0  0  0  0  0  0  0  0  0  0  0
    3.7431    2.4481   -2.9908 N   0  0  0  0  0  0  0  0  0  0  0  0
    4.7337    1.9973   -3.8561 C   0  0  0  0  0  0  0  0  0  0  0  0
    4.2054    1.1634   -4.9751 C   0  0  0  0  0  0  0  0  0  0  0  0
    3.6272   -0.1035   -4.6192 N   0  0  0  0  0  0  0  0  0  0  0  0
    2.2494   -0.2510   -4.9635 C   0  0  0  0  0  0  0  0  0  0  0  0
    2.0255   -1.3732   -5.9359 C   0  0  0  0  0  0  0  0  0  0  0  0
    1.5120   -2.5685   -5.3400 N   0  0  0  0  0  0  0  0  0  0  0  0
    0.0512   -2.6493   -5.3528 C   0  0  0  0  0  0  0  0  0  0  0  0
   -0.5233   -2.3218   -4.0097 C   0  0  0  0  0  0  0  0  0  0  0  0
   -1.7050   -1.7744   -3.6244 N   0  0  0  0  0  0  0  0  0  0  0  0
   -0.4559   -2.9939   -2.8304 N   0  0  0  0  0  0  0  0  0  0  0  0
   -1.3528   -4.0113   -2.5329 C   0  0  0  0  0  0  0  0  0  0  0  0
   -1.2275   -4.5848   -1.1924 C   0  0  0  0  0  0  0  0  0  0  0  0
   -0.3965   -5.7943   -1.1334 N   0  0  0  0  0  0  0  0  0  0  0  0
    0.8652   -5.5619   -0.4930 C   0  0  0  0  0  0  0  0  0  0  0  0
    1.0032   -6.2048    0.8538 C   0  0  0  0  0  0  0  0  0  0  0  0
   -0.2374   -6.1764    1.6244 N   0  0  0  0  0  0  0  0  0  0  0  0
   -0.0249   -5.4822    2.9012 C   0  0  0  0  0  0  0  0  0  0  0  0
   -0.0160   -4.0243    2.7927 C   0  0  0  0  0  0  0  0  0  0  0  0
    1.2319   -3.4625    2.5548 N   0  0  0  0  0  0  0  0  0  0  0  0
    1.3812   -2.1153    2.4626 C   0  0  0  0  0  0  0  0  0  0  0  0
    1.1466   -1.1554    1.3420 C   0  0  0  0  0  0  0  0  0  0  0  0
    1.7406   -1.5942    0.0950 N   0  0  0  0  0  0  0  0  0  0  0  0
    3.1617   -1.7933    0.1728 C   0  0  0  0  0  0  0  0  0  0  0  0
    3.8782   -0.6080   -0.4653 C   0  0  0  0  0  0  0  0  0  0  0  0
    5.0326   -0.9951   -1.2143 N   0  0  0  0  0  0  0  0  0  0  0  0
    6.0576    0.0431   -1.2902 C   0  0  0  0  0  0  0  0  0  0  0  0
    5.7192    1.3392   -1.8943 C   0  0  0  0  0  0  0  0  0  0  0  0
    4.5854    1.9124   -1.3423 N   0  0  0  0  0  0  0  0  0  0  0  0
    5.9339    2.0555   -3.1056 C   0  0  0  0  0  0  0  0  0  0  0  0
    7.7023    3.1269   -3.6180 I   0  0  0  0  0  0  0  0  0  0  0  0
    1.1153   -2.0245    3.7899 N   0  0  0  0  0  0  0  0  0  0  0  0
   -0.1523   -2.2973    4.2885 C   0  0  0  0  0  0  0  0  0  0  0  0
   -0.2890   -2.2044    5.7404 C   0  0  0  0  0  0  0  0  0  0  0  0
   -0.7786   -0.9050    6.2175 N   0  0  0  0  0  0  0  0  0  0  0  0
    0.1243    0.1696    5.9138 C   0  0  0  0  0  0  0  0  0  0  0  0
   -0.2984    0.9666    4.6901 C   0  0  0  0  0  0  0  0  0  0  0  0
   -1.0921    2.1375    5.0606 N   0  0  0  0  0  0  0  0  0  0  0  0
   -2.3321    2.0531    4.2798 C   0  0  0  0  0  0  0  0  0  0  0  0
   -2.2032    2.5656    2.9059 C   0  0  0  0  0  0  0  0  0  0  0  0
   -1.5641    1.6877    2.0351 N   0  0  0  0  0  0  0  0  0  0  0  0
   -2.8798    3.4846    2.0604 C   0  0  0  0  0  0  0  0  0  0  0  0
   -2.6869    5.6047    2.0782 I   0  0  0  0  0  0  0  0  0  0  0  0
   -0.8317   -2.9416    3.2206 C   0  0  0  0  0  0  0  0  0  0  0  0
   -2.6763   -2.3368    2.3426 I   0  0  0  0  0  0  0  0  0  0  0  0
   -4.6195   -1.3164   -3.8215 H   0  0  0  0  0  0  0  0  0  0  0  0
   -4.8518   -2.4749   -2.5946 H   0  0  0  0  0  0  0  0  0  0  0  0
   -3.0662   -0.1974   -1.9143 H   0  0  0  0  0  0  0  0  0  0  0  0
   -3.6478   -1.5748   -0.9157 H   0  0  0  0  0  0  0  0  0  0  0  0
   -5.9443   -0.9063   -2.0193 H   0  0  0  0  0  0  0  0  0  0  0  0
   -5.6967    1.0369   -3.0006 H   0  0  0  0  0  0  0  0  0  0  0  0
   -4.2817    1.5309   -2.0584 H   0  0  0  0  0  0  0  0  0  0  0  0
   -7.0626    2.2531   -1.6869 H   0  0  0  0  0  0  0  0  0  0  0  0
   -6.7339    1.0484   -0.4214 H   0  0  0  0  0  0  0  0  0  0  0  0
   -4.8525    3.3042   -0.8692 H   0  0  0  0  0  0  0  0  0  0  0  0
   -5.4209    1.3324    1.1514 H   0  0  0  0  0  0  0  0  0  0  0  0
   -5.8135    2.8826    1.6313 H   0  0  0  0  0  0  0  0  0  0  0  0
   -0.8032    3.4062   -0.8718 H   0  0  0  0  0  0  0  0  0  0  0  0
    0.2038    2.0083   -0.5916 H   0  0  0  0  0  0  0  0  0  0  0  0
    0.1884    4.5981    0.7249 H   0  0  0  0  0  0  0  0  0  0  0  0
    2.3651    2.8291    0.5098 H   0  0  0  0  0  0  0  0  0  0  0  0
    1.5425    3.3219   -1.0767 H   0  0  0  0  0  0  0  0  0  0  0  0
    3.2021    4.9698    0.7443 H   0  0  0  0  0  0  0  0  0  0  0  0
    1.6522    5.7183    0.0907 H   0  0  0  0  0  0  0  0  0  0  0  0
    3.3884    6.2255   -1.2676 H   0  0  0  0  0  0  0  0  0  0  0  0
    4.9834    5.0470   -2.1827 H   0  0  0  0  0  0  0  0  0  0  0  0
    4.7620    4.6813   -0.5074 H   0  0  0  0  0  0  0  0  0  0  0  0
    3.5971    1.7369   -5.7250 H   0  0  0  0  0  0  0  0  0  0  0  0
    4.9956    0.8221   -5.7018 H   0  0  0  0  0  0  0  0  0  0  0  0
    4.2206   -0.9286   -4.7414 H   0  0  0  0  0  0  0  0  0  0  0  0
    1.6795   -0.5082   -4.0359 H   0  0  0  0  0  0  0  0  0  0  0  0
    1.8521    0.7257   -5.3158 H   0  0  0  0  0  0  0  0  0  0  0  0
    1.3113   -1.0352   -6.7275 H   0  0  0  0  0  0  0  0  0  0  0  0
    2.9628   -1.6317   -6.4708 H   0  0  0  0  0  0  0  0  0  0  0  0
    1.8863   -3.4506   -5.7237 H   0  0  0  0  0  0  0  0  0  0  0  0
   -0.2073   -1.8889   -6.1339 H   0  0  0  0  0  0  0  0  0  0  0  0
   -0.2751   -3.5943   -5.8022 H   0  0  0  0  0  0  0  0  0  0  0  0
   -2.1792   -4.9708   -0.7276 H   0  0  0  0  0  0  0  0  0  0  0  0
   -0.9002   -3.9709   -0.3409 H   0  0  0  0  0  0  0  0  0  0  0  0
   -0.3000   -6.1529   -2.1096 H   0  0  0  0  0  0  0  0  0  0  0  0
    1.6558   -5.9913   -1.1595 H   0  0  0  0  0  0  0  0  0  0  0  0
    1.0415   -4.4789   -0.4732 H   0  0  0  0  0  0  0  0  0  0  0  0
    1.8352   -5.7039    1.4074 H   0  0  0  0  0  0  0  0  0  0  0  0
    1.3623   -7.2492    0.6845 H   0  0  0  0  0  0  0  0  0  0  0  0
   -0.4677   -7.1603    1.8309 H   0  0  0  0  0  0  0  0  0  0  0  0
   -0.8343   -5.9266    3.5464 H   0  0  0  0  0  0  0  0  0  0  0  0
    0.8235   -6.0180    3.3746 H   0  0  0  0  0  0  0  0  0  0  0  0
    1.6684   -0.1772    1.4998 H   0  0  0  0  0  0  0  0  0  0  0  0
    0.1082   -0.9140    1.1082 H   0  0  0  0  0  0  0  0  0  0  0  0
    1.4376   -0.9081   -0.6155 H   0  0  0  0  0  0  0  0  0  0  0  0
    3.3957   -2.7455   -0.3278 H   0  0  0  0  0  0  0  0  0  0  0  0
    3.4122   -1.8813    1.2602 H   0  0  0  0  0  0  0  0  0  0  0  0
    4.1113    0.0663    0.3673 H   0  0  0  0  0  0  0  0  0  0  0  0
    3.1398   -0.1877   -1.1926 H   0  0  0  0  0  0  0  0  0  0  0  0
    4.8021   -1.3988   -2.1312 H   0  0  0  0  0  0  0  0  0  0  0  0
    6.6505    0.0970   -0.3358 H   0  0  0  0  0  0  0  0  0  0  0  0
    6.7919   -0.5769   -1.8834 H   0  0  0  0  0  0  0  0  0  0  0  0
   -1.0419   -2.8961    6.2147 H   0  0  0  0  0  0  0  0  0  0  0  0
    0.5538   -2.4459    6.4064 H   0  0  0  0  0  0  0  0  0  0  0  0
   -0.8322   -0.9978    7.2458 H   0  0  0  0  0  0  0  0  0  0  0  0
    0.1756    0.8773    6.7740 H   0  0  0  0  0  0  0  0  0  0  0  0
    1.1483   -0.2408    5.8017 H   0  0  0  0  0  0  0  0  0  0  0  0
   -0.8929    0.2503    4.0685 H   0  0  0  0  0  0  0  0  0  0  0  0
    0.5723    1.2429    4.0540 H   0  0  0  0  0  0  0  0  0  0  0  0
   -1.2908    2.0352    6.0652 H   0  0  0  0  0  0  0  0  0  0  0  0
   -2.8369    1.0627    4.4279 H   0  0  0  0  0  0  0  0  0  0  0  0
   -3.0181    2.6420    4.9512 H   0  0  0  0  0  0  0  0  0  0  0  0
  1  2  1  0
  2  3  2  0
  3  4  1  0
  4  5  1  0
  5  6  1  0
  6  7  1  0
  7  8  1  0
  8  9  1  0
  9 10  1  0
 10 11  1  0
 11 12  1  0
 12 13  2  0
 13 14  1  0
 14 15  1  0
 15 16  1  0
 16 17  1  0
 17 18  1  0
 18 19  1  0
 19 20  1  0
 20 21  1  0
 21 22  2  0
 22 23  1  0
 23 24  1  0
 24 25  1  0
 25 26  1  0
 26 27  1  0
 27 28  1  0
 28 29  1  0
 29 30  2  0
 29 31  1  0
 31 32  2  0
 32 33  1  0
 33 34  1  0
 34 35  1  0
 35 36  1  0
 36 37  1  0
 37 38  1  0
 38 39  1  0
 39 40  1  0
 40 41  2  0
 41 42  1  0
 42 43  1  0
 43 44  1  0
 44 45  1  0
 45 46  1  0
 46 47  1  0
 47 48  1  0
 48 49  1  0
 48 50  2  0
 50 51  1  0
 41 52  1  0
 52 53  2  0
 53 54  1  0
 54 55  1  0
 55 56  1  0
 56 57  1  0
 57 58  1  0
 58 59  1  0
 59 60  1  0
 60 61  2  0
 60 62  1  0
 62 63  1  0
 53 64  1  0
 64 65  1  0
 32  2  1  0
 64 39  2  0
 30  3  1  0
 62 11  2  0
 61 13  1  0
 49 20  2  0
 50 22  1  0
  4 66  1  0
  4 67  1  0
  5 68  1  0
  5 69  1  0
  6 70  1  0
  7 71  1  0
  7 72  1  0
  8 73  1  0
  8 74  1  0
  9 75  1  0
 10 76  1  0
 10 77  1  0
 14 78  1  0
 14 79  1  0
 15 80  1  0
 16 81  1  0
 16 82  1  0
 17 83  1  0
 17 84  1  0
 18 85  1  0
 19 86  1  0
 19 87  1  0
 23 88  1  0
 23 89  1  0
 24 90  1  0
 25 91  1  0
 25 92  1  0
 26 93  1  0
 26 94  1  0
 27 95  1  0
 28 96  1  0
 28 97  1  0
 33 98  1  0
 33 99  1  0
 34100  1  0
 35101  1  0
 35102  1  0
 36103  1  0
 36104  1  0
 37105  1  0
 38106  1  0
 38107  1  0
 42108  1  0
 42109  1  0
 43110  1  0
 44111  1  0
 44112  1  0
 45113  1  0
 45114  1  0
 46115  1  0
 47116  1  0
 47117  1  0
 54118  1  0
 54119  1  0
 55120  1  0
 56121  1  0
 56122  1  0
 57123  1  0
 57124  1  0
 58125  1  0
 59126  1  0
 59127  1  0
M  END
