
     RDKit          3D

127133  0  0  0  0  0  0  0  0999 V2000
   -3.0512   -3.4226   -5.9881 Br  0  0  0  0  0  0  0  0  0  0  0  0
   -2.5471   -1.6684   -5.3086 C   0  0  0  0  0  0  0  0  0  0  0  0
   -1.2085   -1.2936   -5.0905 C   0  0  0  0  0  0  0  0  0  0  0  0
   -0.2397   -1.4081   -3.9880 C   0  0  0  0  0  0  0  0  0  0  0  0
    0.8716   -2.4266   -4.2436 C   0  0  0  0  0  0  0  0  0  0  0  0
    1.2740   -2.9268   -2.9687 N   0  0  0  0  0  0  0  0  0  0  0  0
    2.6928   -2.7460   -2.6738 C   0  0  0  0  0  0  0  0  0  0  0  0
    2.9389   -3.2841   -1.2695 C   0  0  0  0  0  0  0  0  0  0  0  0
    4.2849   -3.0695   -0.8170 N   0  0  0  0  0  0  0  0  0  0  0  0
    4.4082   -3.1171    0.6445 C   0  0  0  0  0  0  0  0  0  0  0  0
    3.1755   -2.8517    1.3690 C   0  0  0  0  0  0  0  0  0  0  0  0
    2.6779   -1.6022    1.6624 N   0  0  0  0  0  0  0  0  0  0  0  0
    2.7904   -1.0618    2.9013 C   0  0  0  0  0  0  0  0  0  0  0  0
    3.7708   -0.2184    3.4974 C   0  0  0  0  0  0  0  0  0  0  0  0
    3.2592    0.6923    4.5348 N   0  0  0  0  0  0  0  0  0  0  0  0
    3.1100    2.0392    4.1093 C   0  0  0  0  0  0  0  0  0  0  0  0
    1.7420    2.6387    4.4117 C   0  0  0  0  0  0  0  0  0  0  0  0
    1.7534    4.0677    4.4564 N   0  0  0  0  0  0  0  0  0  0  0  0
    0.7508    4.7167    3.6247 C   0  0  0  0  0  0  0  0  0  0  0  0
    0.3508    3.9232    2.4467 C   0  0  0  0  0  0  0  0  0  0  0  0
   -0.6591    4.0322    1.5747 N   0  0  0  0  0  0  0  0  0  0  0  0
   -0.5943    4.7931    0.4148 C   0  0  0  0  0  0  0  0  0  0  0  0
   -1.7592    4.6161   -0.4714 C   0  0  0  0  0  0  0  0  0  0  0  0
   -1.6337    5.1811   -1.8186 N   0  0  0  0  0  0  0  0  0  0  0  0
   -1.0708    4.2978   -2.7828 C   0  0  0  0  0  0  0  0  0  0  0  0
   -2.0621    3.5762   -3.6517 C   0  0  0  0  0  0  0  0  0  0  0  0
   -1.6487    2.2630   -4.0568 N   0  0  0  0  0  0  0  0  0  0  0  0
   -1.6444    2.0730   -5.5067 C   0  0  0  0  0  0  0  0  0  0  0  0
   -1.9618    0.7689   -6.0054 C   0  0  0  0  0  0  0  0  0  0  0  0
   -1.2348   -0.3799   -6.1258 N   0  0  0  0  0  0  0  0  0  0  0  0
   -3.1489    0.0935   -6.0150 N   0  0  0  0  0  0  0  0  0  0  0  0
   -3.5027   -0.7015   -4.9466 C   0  0  0  0  0  0  0  0  0  0  0  0
   -4.3497   -0.3098   -3.8193 C   0  0  0  0  0  0  0  0  0  0  0  0
   -4.2349   -1.0801   -2.6080 N   0  0  0  0  0  0  0  0  0  0  0  0
   -5.3356   -0.6570   -1.7395 C   0  0  0  0  0  0  0  0  0  0  0  0
   -5.4307   -1.6404   -0.5780 C   0  0  0  0  0  0  0  0  0  0  0  0
   -6.1829   -1.1773    0.5310 N   0  0  0  0  0  0  0  0  0  0  0  0
   -5.5568   -1.4511    1.8355 C   0  0  0  0  0  0  0  0  0  0  0  0
   -4.1351   -1.7981    1.7621 C   0  0  0  0  0  0  0  0  0  0  0  0
   -3.3135   -0.6761    1.6481 N   0  0  0  0  0  0  0  0  0  0  0  0
   -2.0001   -0.8447    1.3282 C   0  0  0  0  0  0  0  0  0  0  0  0
   -1.2482   -1.0922    0.0607 C   0  0  0  0  0  0  0  0  0  0  0  0
   -0.0354   -0.3021   -0.0220 N   0  0  0  0  0  0  0  0  0  0  0  0
   -0.1120    0.8637   -0.8337 C   0  0  0  0  0  0  0  0  0  0  0  0
    1.2474    1.1528   -1.3895 C   0  0  0  0  0  0  0  0  0  0  0  0
    2.1857    1.7408   -0.5193 N   0  0  0  0  0  0  0  0  0  0  0  0
    2.3049    3.1633   -0.5692 C   0  0  0  0  0  0  0  0  0  0  0  0
    1.5560    3.9933    0.3797 C   0  0  0  0  0  0  0  0  0  0  0  0
    1.1147    3.3165    1.5023 N   0  0  0  0  0  0  0  0  0  0  0  0
    0.7723    5.1696    0.3260 C   0  0  0  0  0  0  0  0  0  0  0  0
    1.4420    6.9777    0.2597 Br  0  0  0  0  0  0  0  0  0  0  0  0
   -1.8199   -1.3118    2.5870 N   0  0  0  0  0  0  0  0  0  0  0  0
   -2.3570   -2.5101    3.0244 C   0  0  0  0  0  0  0  0  0  0  0  0
   -2.1384   -2.8223    4.4440 C   0  0  0  0  0  0  0  0  0  0  0  0
   -1.0668   -3.7893    4.6764 N   0  0  0  0  0  0  0  0  0  0  0  0
   -0.2021   -3.4989    5.7643 C   0  0  0  0  0  0  0  0  0  0  0  0
    0.9309   -4.5166    5.6852 C   0  0  0  0  0  0  0  0  0  0  0  0
    2.2253   -3.9652    5.9231 N   0  0  0  0  0  0  0  0  0  0  0  0
    3.0697   -3.9127    4.7242 C   0  0  0  0  0  0  0  0  0  0  0  0
    2.3900   -3.3046    3.5713 C   0  0  0  0  0  0  0  0  0  0  0  0
    1.9609   -1.9979    3.4481 N   0  0  0  0  0  0  0  0  0  0  0  0
    2.2486   -3.5165    2.1921 C   0  0  0  0  0  0  0  0  0  0  0  0
    0.8717   -4.6950    1.4651 Br  0  0  0  0  0  0  0  0  0  0  0  0
   -3.2596   -2.8918    2.0014 C   0  0  0  0  0  0  0  0  0  0  0  0
   -3.2329   -4.5675    1.0373 Br  0  0  0  0  0  0  0  0  0  0  0  0
    0.3758   -0.4966   -3.7750 H   0  0  0  0  0  0  0  0  0  0  0  0
   -0.6667   -1.5917   -2.9686 H   0  0  0  0  0  0  0  0  0  0  0  0
    1.7024   -1.9775   -4.8376 H   0  0  0  0  0  0  0  0  0  0  0  0
    0.4633   -3.2422   -4.8850 H   0  0  0  0  0  0  0  0  0  0  0  0
    0.6621   -2.6451   -2.1850 H   0  0  0  0  0  0  0  0  0  0  0  0
    2.9203   -1.6691   -2.7153 H   0  0  0  0  0  0  0  0  0  0  0  0
    3.2862   -3.2640   -3.4383 H   0  0  0  0  0  0  0  0  0  0  0  0
    2.6450   -4.3608   -1.2884 H   0  0  0  0  0  0  0  0  0  0  0  0
    2.2824   -2.6700   -0.6365 H   0  0  0  0  0  0  0  0  0  0  0  0
    4.6431   -2.1844   -1.2132 H   0  0  0  0  0  0  0  0  0  0  0  0
    4.9033   -4.1101    0.8141 H   0  0  0  0  0  0  0  0  0  0  0  0
    5.2937   -2.4618    0.8591 H   0  0  0  0  0  0  0  0  0  0  0  0
    4.2910    0.5287    2.8374 H   0  0  0  0  0  0  0  0  0  0  0  0
    4.6583   -0.6923    3.9978 H   0  0  0  0  0  0  0  0  0  0  0  0
    2.2986    0.3211    4.7616 H   0  0  0  0  0  0  0  0  0  0  0  0
    3.4052    2.1322    3.0601 H   0  0  0  0  0  0  0  0  0  0  0  0
    3.8343    2.6638    4.6918 H   0  0  0  0  0  0  0  0  0  0  0  0
    1.5222    2.3015    5.4594 H   0  0  0  0  0  0  0  0  0  0  0  0
    0.9397    2.1949    3.8055 H   0  0  0  0  0  0  0  0  0  0  0  0
    2.6848    4.5067    4.3817 H   0  0  0  0  0  0  0  0  0  0  0  0
    1.1369    5.7308    3.4404 H   0  0  0  0  0  0  0  0  0  0  0  0
   -0.0701    4.8612    4.3752 H   0  0  0  0  0  0  0  0  0  0  0  0
   -2.6762    5.1922   -0.1656 H   0  0  0  0  0  0  0  0  0  0  0  0
   -2.0217    3.5765   -0.7958 H   0  0  0  0  0  0  0  0  0  0  0  0
   -1.2499    6.1401   -1.8071 H   0  0  0  0  0  0  0  0  0  0  0  0
   -0.3526    3.6449   -2.2766 H   0  0  0  0  0  0  0  0  0  0  0  0
   -0.4610    4.9303   -3.4796 H   0  0  0  0  0  0  0  0  0  0  0  0
   -2.3463    4.1773   -4.5267 H   0  0  0  0  0  0  0  0  0  0  0  0
   -2.9873    3.4446   -3.0352 H   0  0  0  0  0  0  0  0  0  0  0  0
   -0.7158    2.0007   -3.7012 H   0  0  0  0  0  0  0  0  0  0  0  0
   -2.2894    2.9217   -5.8710 H   0  0  0  0  0  0  0  0  0  0  0  0
   -0.6468    2.5016   -5.8052 H   0  0  0  0  0  0  0  0  0  0  0  0
   -5.4525   -0.3548   -4.0356 H   0  0  0  0  0  0  0  0  0  0  0  0
   -4.2176    0.7209   -3.4000 H   0  0  0  0  0  0  0  0  0  0  0  0
   -4.2840   -2.1025   -2.8172 H   0  0  0  0  0  0  0  0  0  0  0  0
   -5.0273    0.3120   -1.2843 H   0  0  0  0  0  0  0  0  0  0  0  0
   -6.2910   -0.5981   -2.2795 H   0  0  0  0  0  0  0  0  0  0  0  0
   -5.9483   -2.5417   -0.9936 H   0  0  0  0  0  0  0  0  0  0  0  0
   -4.3940   -1.9254   -0.3903 H   0  0  0  0  0  0  0  0  0  0  0  0
   -6.5213   -0.2027    0.4614 H   0  0  0  0  0  0  0  0  0  0  0  0
   -6.2457   -2.2663    2.1948 H   0  0  0  0  0  0  0  0  0  0  0  0
   -5.8876   -0.6924    2.5943 H   0  0  0  0  0  0  0  0  0  0  0  0
   -1.0846   -2.1625   -0.1881 H   0  0  0  0  0  0  0  0  0  0  0  0
   -1.7932   -0.7331   -0.8517 H   0  0  0  0  0  0  0  0  0  0  0  0
    0.6651   -0.9327   -0.4967 H   0  0  0  0  0  0  0  0  0  0  0  0
   -0.7765    0.6060   -1.6975 H   0  0  0  0  0  0  0  0  0  0  0  0
   -0.6094    1.7002   -0.3411 H   0  0  0  0  0  0  0  0  0  0  0  0
    1.2209    1.7716   -2.3231 H   0  0  0  0  0  0  0  0  0  0  0  0
    1.6624    0.1679   -1.7270 H   0  0  0  0  0  0  0  0  0  0  0  0
    3.0591    1.2221   -0.3427 H   0  0  0  0  0  0  0  0  0  0  0  0
    3.4161    3.3449   -0.5684 H   0  0  0  0  0  0  0  0  0  0  0  0
    2.0677    3.3193   -1.6586 H   0  0  0  0  0  0  0  0  0  0  0  0
   -3.0050   -3.3135    4.9730 H   0  0  0  0  0  0  0  0  0  0  0  0
   -1.9648   -2.0248    5.1722 H   0  0  0  0  0  0  0  0  0  0  0  0
   -1.4091   -4.7589    4.7691 H   0  0  0  0  0  0  0  0  0  0  0  0
    0.1544   -2.4661    5.8374 H   0  0  0  0  0  0  0  0  0  0  0  0
   -0.7771   -3.6905    6.7066 H   0  0  0  0  0  0  0  0  0  0  0  0
    0.9554   -5.0508    4.7254 H   0  0  0  0  0  0  0  0  0  0  0  0
    0.7679   -5.3070    6.4624 H   0  0  0  0  0  0  0  0  0  0  0  0
    2.2035   -2.9821    6.3024 H   0  0  0  0  0  0  0  0  0  0  0  0
    4.0149   -3.4187    5.0688 H   0  0  0  0  0  0  0  0  0  0  0  0
    3.4056   -4.9533    4.6292 H   0  0  0  0  0  0  0  0  0  0  0  0
  1  2  1  0
  2  3  2  0
  3  4  1  0
  4  5  1  0
  5  6  1  0
  6  7  1  0
  7  8  1  0
  8  9  1  0
  9 10  1  0
 10 11  1  0
 11 12  1  0
 12 13  2  0
 13 14  1  0
 14 15  1  0
 15 16  1  0
 16 17  1  0
 17 18  1  0
 18 19  1  0
 19 20  1  0
 20 21  1  0
 21 22  2  0
 22 23  1  0
 23 24  1  0
 24 25  1  0
 25 26  1  0
 26 27  1  0
 27 28  1  0
 28 29  1  0
 29 30  2  0
 29 31  1  0
 31 32  2  0
 32 33  1  0
 33 34  1  0
 34 35  1  0
 35 36  1  0
 36 37  1  0
 37 38  1  0
 38 39  1  0
 39 40  1  0
 40 41  2  0
 41 42  1  0
 42 43  1  0
 43 44  1  0
 44 45  1  0
 45 46  1  0
 46 47  1  0
 47 48  1  0
 48 49  1  0
 48 50  2  0
 50 51  1  0
 41 52  1  0
 52 53  2  0
 53 54  1  0
 54 55  1  0
 55 56  1  0
 56 57  1  0
 57 58  1  0
 58 59  1  0
 59 60  1  0
 60 61  2  0
 60 62  1  0
 62 63  1  0
 53 64  1  0
 64 65  1  0
 32  2  1  0
 64 39  2  0
 30  3  1  0
 62 11  2  0
 61 13  1  0
 49 20  2  0
 50 22  1  0
  4 66  1  0
  4 67  1  0
  5 68  1  0
  5 69  1  0
  6 70  1  0
  7 71  1  0
  7 72  1  0
  8 73  1  0
  8 74  1  0
  9 75  1  0
 10 76  1  0
 10 77  1  0
 14 78  1  0
 14 79  1  0
 15 80  1  0
 16 81  1  0
 16 82  1  0
 17 83  1  0
 17 84  1  0
 18 85  1  0
 19 86  1  0
 19 87  1  0
 23 88  1  0
 23 89  1  0
 24 90  1  0
 25 91  1  0
 25 92  1  0
 26 93  1  0
 26 94  1  0
 27 95  1  0
 28 96  1  0
 28 97  1  0
 33 98  1  0
 33 99  1  0
 34100  1  0
 35101  1  0
 35102  1  0
 36103  1  0
 36104  1  0
 37105  1  0
 38106  1  0
 38107  1  0
 42108  1  0
 42109  1  0
 43110  1  0
 44111  1  0
 44112  1  0
 45113  1  0
 45114  1  0
 46115  1  0
 47116  1  0
 47117  1  0
 54118  1  0
 54119  1  0
 55120  1  0
 56121  1  0
 56122  1  0
 57123  1  0
 57124  1  0
 58125  1  0
 59126  1  0
 59127  1  0
M  END
