
     RDKit          3D

156168  0  0  0  0  0  0  0  0999 V2000
   -0.0088    4.0576   -0.5978 C   0  0  0  0  0  0  0  0  0  0  0  0
   -0.9243    3.4922   -1.5142 C   0  0  0  0  0  0  0  0  0  0  0  0
   -2.2371    3.2447   -1.0797 C   0  0  0  0  0  0  0  0  0  0  0  0
   -2.6206    3.4943    0.2333 C   0  0  0  0  0  0  0  0  0  0  0  0
   -1.7347    4.1233    1.1052 C   0  0  0  0  0  0  0  0  0  0  0  0
   -0.4087    4.3666    0.7206 C   0  0  0  0  0  0  0  0  0  0  0  0
    0.5887    4.7314    1.7875 C   0  0  0  0  0  0  0  0  0  0  0  0
    0.8051    3.5436    2.6426 N   0  0  0  0  0  0  0  0  0  0  0  0
    0.8242    3.7254    4.1198 C   0  0  0  0  0  0  0  0  0  0  0  0
    1.7804    4.8341    4.5970 C   0  0  0  0  0  0  0  0  0  0  0  0
    0.5982    5.5846    5.2104 C   0  0  0  0  0  0  0  0  0  0  0  0
   -0.3611    4.4971    4.7333 C   0  0  0  0  0  0  0  0  0  0  0  0
    1.0852    2.4317    4.8011 N   0  0  0  0  0  0  0  0  0  0  0  0
   -0.0313    1.4731    4.6699 C   0  0  0  0  0  0  0  0  0  0  0  0
    0.4445    0.0345    4.6380 C   0  0  0  0  0  0  0  0  0  0  0  0
   -0.4209   -0.9513    4.1428 C   0  0  0  0  0  0  0  0  0  0  0  0
    0.0379   -2.2540    3.8993 C   0  0  0  0  0  0  0  0  0  0  0  0
    1.3452   -2.6012    4.2810 C   0  0  0  0  0  0  0  0  0  0  0  0
    2.2025   -1.6481    4.8625 C   0  0  0  0  0  0  0  0  0  0  0  0
    1.7373   -0.3345    5.0511 C   0  0  0  0  0  0  0  0  0  0  0  0
    3.6305   -1.9942    5.2407 C   0  0  0  0  0  0  0  0  0  0  0  0
    4.4071   -2.6076    4.1412 N   0  0  0  0  0  0  0  0  0  0  0  0
    4.8682   -1.6936    3.0715 C   0  0  0  0  0  0  0  0  0  0  0  0
    6.0192   -0.7686    3.4933 C   0  0  0  0  0  0  0  0  0  0  0  0
    6.9342   -1.4513    2.4794 C   0  0  0  0  0  0  0  0  0  0  0  0
    5.8280   -2.4434    2.1257 C   0  0  0  0  0  0  0  0  0  0  0  0
    3.7344   -0.9854    2.4227 N   0  0  0  0  0  0  0  0  0  0  0  0
    3.9692   -0.2027    1.2015 C   0  0  0  0  0  0  0  0  0  0  0  0
    2.7091   -0.2582    0.3808 C   0  0  0  0  0  0  0  0  0  0  0  0
    1.5066    0.2322    0.9138 C   0  0  0  0  0  0  0  0  0  0  0  0
    0.2988    0.1116    0.2102 C   0  0  0  0  0  0  0  0  0  0  0  0
    0.3223   -0.4697   -1.0641 C   0  0  0  0  0  0  0  0  0  0  0  0
    1.5212   -0.9542   -1.6229 C   0  0  0  0  0  0  0  0  0  0  0  0
    2.7109   -0.8596   -0.8911 C   0  0  0  0  0  0  0  0  0  0  0  0
    1.4629   -1.7508   -2.8944 C   0  0  0  0  0  0  0  0  0  0  0  0
    2.5669   -1.4445   -3.8085 N   0  0  0  0  0  0  0  0  0  0  0  0
    2.6759   -2.4211   -4.9225 C   0  0  0  0  0  0  0  0  0  0  0  0
    3.8433   -2.0120   -5.8407 C   0  0  0  0  0  0  0  0  0  0  0  0
    4.6196   -3.2544   -5.4312 C   0  0  0  0  0  0  0  0  0  0  0  0
    3.4675   -3.6944   -4.5436 C   0  0  0  0  0  0  0  0  0  0  0  0
    1.3987   -2.6182   -5.6738 N   0  0  0  0  0  0  0  0  0  0  0  0
    0.4968   -3.7265   -5.2922 C   0  0  0  0  0  0  0  0  0  0  0  0
   -0.7648   -3.1800   -4.6659 C   0  0  0  0  0  0  0  0  0  0  0  0
   -1.4014   -2.0787   -5.2388 C   0  0  0  0  0  0  0  0  0  0  0  0
   -2.2933   -1.2891   -4.4958 C   0  0  0  0  0  0  0  0  0  0  0  0
   -2.5765   -1.6471   -3.1591 C   0  0  0  0  0  0  0  0  0  0  0  0
   -1.9644   -2.7820   -2.5782 C   0  0  0  0  0  0  0  0  0  0  0  0
   -1.1392   -3.5973   -3.3841 C   0  0  0  0  0  0  0  0  0  0  0  0
   -2.1483   -3.1048   -1.1022 C   0  0  0  0  0  0  0  0  0  0  0  0
   -1.0156   -3.9049   -0.6010 N   0  0  0  0  0  0  0  0  0  0  0  0
   -1.0377   -4.2351    0.8388 C   0  0  0  0  0  0  0  0  0  0  0  0
   -0.1200   -5.4407    1.0963 C   0  0  0  0  0  0  0  0  0  0  0  0
   -1.3226   -6.2605    1.5425 C   0  0  0  0  0  0  0  0  0  0  0  0
   -2.2550   -5.0823    1.2638 C   0  0  0  0  0  0  0  0  0  0  0  0
   -0.7141   -3.0556    1.6897 N   0  0  0  0  0  0  0  0  0  0  0  0
   -0.8288   -3.2444    3.1537 C   0  0  0  0  0  0  0  0  0  0  0  0
   -2.9643   -0.1315   -5.2080 C   0  0  0  0  0  0  0  0  0  0  0  0
   -3.2861    1.0147   -4.3286 N   0  0  0  0  0  0  0  0  0  0  0  0
   -2.3674    2.1929   -4.3875 C   0  0  0  0  0  0  0  0  0  0  0  0
   -1.9381    2.6668   -5.8007 C   0  0  0  0  0  0  0  0  0  0  0  0
   -2.6477    3.9943   -5.5896 C   0  0  0  0  0  0  0  0  0  0  0  0
   -3.1339    3.5399   -4.2236 C   0  0  0  0  0  0  0  0  0  0  0  0
   -1.2236    1.9723   -3.4541 N   0  0  0  0  0  0  0  0  0  0  0  0
   -0.4928    3.1521   -2.9329 C   0  0  0  0  0  0  0  0  0  0  0  0
   -0.9688    0.6190    0.8686 C   0  0  0  0  0  0  0  0  0  0  0  0
   -2.2088    0.2599    0.1549 N   0  0  0  0  0  0  0  0  0  0  0  0
   -3.4530    0.4189    0.9504 C   0  0  0  0  0  0  0  0  0  0  0  0
   -3.6497   -0.7498    1.9209 C   0  0  0  0  0  0  0  0  0  0  0  0
   -4.8611   -1.2183    1.1309 C   0  0  0  0  0  0  0  0  0  0  0  0
   -4.7129   -0.0335    0.1889 C   0  0  0  0  0  0  0  0  0  0  0  0
   -3.6233    1.7283    1.6344 N   0  0  0  0  0  0  0  0  0  0  0  0
   -3.8906    2.8987    0.7706 C   0  0  0  0  0  0  0  0  0  0  0  0
    1.0169    4.2398   -0.9046 H   0  0  0  0  0  0  0  0  0  0  0  0
   -2.9509    2.7614   -1.7264 H   0  0  0  0  0  0  0  0  0  0  0  0
   -2.0439    4.2952    2.1250 H   0  0  0  0  0  0  0  0  0  0  0  0
    1.5505    5.0485    1.3270 H   0  0  0  0  0  0  0  0  0  0  0  0
    0.2069    5.6070    2.3522 H   0  0  0  0  0  0  0  0  0  0  0  0
    1.7085    3.0932    2.3630 H   0  0  0  0  0  0  0  0  0  0  0  0
    2.5075    4.5039    5.3702 H   0  0  0  0  0  0  0  0  0  0  0  0
    2.2601    5.4056    3.7790 H   0  0  0  0  0  0  0  0  0  0  0  0
    0.6563    5.6275    6.3204 H   0  0  0  0  0  0  0  0  0  0  0  0
    0.4095    6.5630    4.7191 H   0  0  0  0  0  0  0  0  0  0  0  0
   -1.1084    4.8828    4.0176 H   0  0  0  0  0  0  0  0  0  0  0  0
   -0.8431    3.9874    5.5931 H   0  0  0  0  0  0  0  0  0  0  0  0
    1.2426    2.5909    5.8237 H   0  0  0  0  0  0  0  0  0  0  0  0
   -0.7532    1.5956    5.5071 H   0  0  0  0  0  0  0  0  0  0  0  0
   -0.5894    1.6750    3.7300 H   0  0  0  0  0  0  0  0  0  0  0  0
   -1.4464   -0.6911    3.9007 H   0  0  0  0  0  0  0  0  0  0  0  0
    1.6877   -3.6140    4.1232 H   0  0  0  0  0  0  0  0  0  0  0  0
    2.4010    0.4054    5.4803 H   0  0  0  0  0  0  0  0  0  0  0  0
    3.5905   -2.7220    6.0796 H   0  0  0  0  0  0  0  0  0  0  0  0
    4.1715   -1.1058    5.6273 H   0  0  0  0  0  0  0  0  0  0  0  0
    3.8846   -3.4044    3.7133 H   0  0  0  0  0  0  0  0  0  0  0  0
    6.3636   -0.9481    4.5380 H   0  0  0  0  0  0  0  0  0  0  0  0
    5.8521    0.3055    3.2622 H   0  0  0  0  0  0  0  0  0  0  0  0
    7.8116   -1.9385    2.9479 H   0  0  0  0  0  0  0  0  0  0  0  0
    7.1790   -0.7842    1.6266 H   0  0  0  0  0  0  0  0  0  0  0  0
    5.5552   -2.4747    1.0534 H   0  0  0  0  0  0  0  0  0  0  0  0
    6.0828   -3.4591    2.5004 H   0  0  0  0  0  0  0  0  0  0  0  0
    3.3926   -0.2885    3.1152 H   0  0  0  0  0  0  0  0  0  0  0  0
    4.1878    0.8603    1.4594 H   0  0  0  0  0  0  0  0  0  0  0  0
    4.8325   -0.5512    0.6102 H   0  0  0  0  0  0  0  0  0  0  0  0
    1.5130    0.7137    1.8845 H   0  0  0  0  0  0  0  0  0  0  0  0
   -0.5879   -0.5345   -1.6400 H   0  0  0  0  0  0  0  0  0  0  0  0
    3.6280   -1.2732   -1.2944 H   0  0  0  0  0  0  0  0  0  0  0  0
    1.4722   -2.8331   -2.6295 H   0  0  0  0  0  0  0  0  0  0  0  0
    0.5189   -1.4813   -3.3996 H   0  0  0  0  0  0  0  0  0  0  0  0
    2.3636   -0.5025   -4.2257 H   0  0  0  0  0  0  0  0  0  0  0  0
    3.6138   -2.0096   -6.9277 H   0  0  0  0  0  0  0  0  0  0  0  0
    4.3660   -1.0842   -5.5221 H   0  0  0  0  0  0  0  0  0  0  0  0
    5.5433   -3.0151   -4.8553 H   0  0  0  0  0  0  0  0  0  0  0  0
    4.7921   -3.9488   -6.2814 H   0  0  0  0  0  0  0  0  0  0  0  0
    3.7625   -3.7306   -3.4707 H   0  0  0  0  0  0  0  0  0  0  0  0
    3.0623   -4.6538   -4.9243 H   0  0  0  0  0  0  0  0  0  0  0  0
    1.4955   -2.5488   -6.7197 H   0  0  0  0  0  0  0  0  0  0  0  0
    0.9738   -4.4336   -4.5864 H   0  0  0  0  0  0  0  0  0  0  0  0
    0.2177   -4.3147   -6.1909 H   0  0  0  0  0  0  0  0  0  0  0  0
   -1.1471   -1.7914   -6.2573 H   0  0  0  0  0  0  0  0  0  0  0  0
   -3.2192   -1.0179   -2.5560 H   0  0  0  0  0  0  0  0  0  0  0  0
   -0.6575   -4.4723   -2.9647 H   0  0  0  0  0  0  0  0  0  0  0  0
   -2.2349   -2.1718   -0.5144 H   0  0  0  0  0  0  0  0  0  0  0  0
   -3.0995   -3.6616   -1.0011 H   0  0  0  0  0  0  0  0  0  0  0  0
   -0.1359   -3.3677   -0.7887 H   0  0  0  0  0  0  0  0  0  0  0  0
    0.3356   -5.8527    0.1684 H   0  0  0  0  0  0  0  0  0  0  0  0
    0.6351   -5.2909    1.8983 H   0  0  0  0  0  0  0  0  0  0  0  0
   -1.2767   -6.5285    2.6194 H   0  0  0  0  0  0  0  0  0  0  0  0
   -1.5075   -7.1278    0.8754 H   0  0  0  0  0  0  0  0  0  0  0  0
   -2.7844   -4.7331    2.1740 H   0  0  0  0  0  0  0  0  0  0  0  0
   -2.9579   -5.3279    0.4384 H   0  0  0  0  0  0  0  0  0  0  0  0
    0.2678   -2.7685    1.4584 H   0  0  0  0  0  0  0  0  0  0  0  0
   -0.5614   -4.2725    3.4750 H   0  0  0  0  0  0  0  0  0  0  0  0
   -1.8802   -3.0885    3.4621 H   0  0  0  0  0  0  0  0  0  0  0  0
   -3.9013   -0.5328   -5.6497 H   0  0  0  0  0  0  0  0  0  0  0  0
   -2.3223    0.1569   -6.0588 H   0  0  0  0  0  0  0  0  0  0  0  0
   -4.2796    1.2935   -4.5202 H   0  0  0  0  0  0  0  0  0  0  0  0
   -0.8410    2.7843   -5.9122 H   0  0  0  0  0  0  0  0  0  0  0  0
   -2.4127    2.1586   -6.6638 H   0  0  0  0  0  0  0  0  0  0  0  0
   -3.4789    4.1623   -6.3053 H   0  0  0  0  0  0  0  0  0  0  0  0
   -1.9331    4.8420   -5.5320 H   0  0  0  0  0  0  0  0  0  0  0  0
   -4.2397    3.4487   -4.2121 H   0  0  0  0  0  0  0  0  0  0  0  0
   -2.7980    4.2491   -3.4428 H   0  0  0  0  0  0  0  0  0  0  0  0
   -0.5455    1.3243   -3.9216 H   0  0  0  0  0  0  0  0  0  0  0  0
    0.5961    2.9151   -2.9184 H   0  0  0  0  0  0  0  0  0  0  0  0
   -0.5879    4.0327   -3.5947 H   0  0  0  0  0  0  0  0  0  0  0  0
   -0.8715    1.7034    0.9532 H   0  0  0  0  0  0  0  0  0  0  0  0
   -1.0006    0.2075    1.8878 H   0  0  0  0  0  0  0  0  0  0  0  0
   -2.2856    0.7602   -0.7516 H   0  0  0  0  0  0  0  0  0  0  0  0
   -3.9174   -0.4281    2.9546 H   0  0  0  0  0  0  0  0  0  0  0  0
   -2.8291   -1.4965    1.8866 H   0  0  0  0  0  0  0  0  0  0  0  0
   -4.6872   -2.1901    0.6183 H   0  0  0  0  0  0  0  0  0  0  0  0
   -5.7993   -1.1802    1.7254 H   0  0  0  0  0  0  0  0  0  0  0  0
   -5.5777    0.6564    0.2903 H   0  0  0  0  0  0  0  0  0  0  0  0
   -4.5193   -0.3382   -0.8554 H   0  0  0  0  0  0  0  0  0  0  0  0
   -2.8432    1.9107    2.3039 H   0  0  0  0  0  0  0  0  0  0  0  0
   -4.4167    3.6684    1.3784 H   0  0  0  0  0  0  0  0  0  0  0  0
   -4.5893    2.6526   -0.0543 H   0  0  0  0  0  0  0  0  0  0  0  0
  1  2  2  0
  2  3  1  0
  3  4  2  0
  4  5  1  0
  5  6  2  0
  6  7  1  0
  7  8  1  0
  8  9  1  0
  9 10  1  0
 10 11  1  0
 11 12  1  0
  9 13  1  0
 13 14  1  0
 14 15  1  0
 15 16  2  0
 16 17  1  0
 17 18  2  0
 18 19  1  0
 19 20  2  0
 19 21  1  0
 21 22  1  0
 22 23  1  0
 23 24  1  0
 24 25  1  0
 25 26  1  0
 23 27  1  0
 27 28  1  0
 28 29  1  0
 29 30  2  0
 30 31  1  0
 31 32  2  0
 32 33  1  0
 33 34  2  0
 33 35  1  0
 35 36  1  0
 36 37  1  0
 37 38  1  0
 38 39  1  0
 39 40  1  0
 37 41  1  0
 41 42  1  0
 42 43  1  0
 43 44  1  0
 44 45  2  0
 45 46  1  0
 46 47  2  0
 47 48  1  0
 47 49  1  0
 49 50  1  0
 50 51  1  0
 51 52  1  0
 52 53  1  0
 53 54  1  0
 51 55  1  0
 55 56  1  0
 45 57  1  0
 57 58  1  0
 58 59  1  0
 59 60  1  0
 60 61  1  0
 61 62  1  0
 59 63  1  0
 63 64  1  0
 31 65  1  0
 65 66  1  0
 66 67  1  0
 67 68  1  0
 68 69  1  0
 69 70  1  0
 67 71  1  0
 71 72  1  0
  6  1  1  0
 12  9  1  0
 20 15  1  0
 26 23  1  0
 34 29  1  0
 40 37  1  0
 48 43  2  0
 54 51  1  0
 62 59  1  0
 70 67  1  0
 64  2  1  0
 72  4  1  0
 56 17  1  0
  1 73  1  0
  3 74  1  0
  5 75  1  0
  7 76  1  0
  7 77  1  0
  8 78  1  0
 10 79  1  0
 10 80  1  0
 11 81  1  0
 11 82  1  0
 12 83  1  0
 12 84  1  0
 13 85  1  0
 14 86  1  0
 14 87  1  0
 16 88  1  0
 18 89  1  0
 20 90  1  0
 21 91  1  0
 21 92  1  0
 22 93  1  0
 24 94  1  0
 24 95  1  0
 25 96  1  0
 25 97  1  0
 26 98  1  0
 26 99  1  0
 27100  1  0
 28101  1  0
 28102  1  0
 30103  1  0
 32104  1  0
 34105  1  0
 35106  1  0
 35107  1  0
 36108  1  0
 38109  1  0
 38110  1  0
 39111  1  0
 39112  1  0
 40113  1  0
 40114  1  0
 41115  1  0
 42116  1  0
 42117  1  0
 44118  1  0
 46119  1  0
 48120  1  0
 49121  1  0
 49122  1  0
 50123  1  0
 52124  1  0
 52125  1  0
 53126  1  0
 53127  1  0
 54128  1  0
 54129  1  0
 55130  1  0
 56131  1  0
 56132  1  0
 57133  1  0
 57134  1  0
 58135  1  0
 60136  1  0
 60137  1  0
 61138  1  0
 61139  1  0
 62140  1  0
 62141  1  0
 63142  1  0
 64143  1  0
 64144  1  0
 65145  1  0
 65146  1  0
 66147  1  0
 68148  1  0
 68149  1  0
 69150  1  0
 69151  1  0
 70152  1  0
 70153  1  0
 71154  1  0
 72155  1  0
 72156  1  0
M  END
