
     RDKit          3D

127133  0  0  0  0  0  0  0  0999 V2000
    1.5109   -7.0252   -0.5143 Cl  0  0  0  0  0  0  0  0  0  0  0  0
    1.4358   -5.3298   -1.0300 C   0  0  0  0  0  0  0  0  0  0  0  0
    0.2670   -4.7968   -1.6388 C   0  0  0  0  0  0  0  0  0  0  0  0
   -1.0489   -4.1273   -1.3568 C   0  0  0  0  0  0  0  0  0  0  0  0
   -1.1794   -2.7575   -1.7597 N   0  0  0  0  0  0  0  0  0  0  0  0
   -2.5941   -2.5459   -2.0721 C   0  0  0  0  0  0  0  0  0  0  0  0
   -2.7368   -1.5716   -3.1964 C   0  0  0  0  0  0  0  0  0  0  0  0
   -3.9200   -0.7810   -3.1777 N   0  0  0  0  0  0  0  0  0  0  0  0
   -3.8665    0.0583   -1.9790 C   0  0  0  0  0  0  0  0  0  0  0  0
   -5.1953    0.1755   -1.3324 C   0  0  0  0  0  0  0  0  0  0  0  0
   -6.1320    1.1853   -1.4382 N   0  0  0  0  0  0  0  0  0  0  0  0
   -6.1120    2.2145   -0.5376 C   0  0  0  0  0  0  0  0  0  0  0  0
   -5.4276    3.4661   -0.5793 C   0  0  0  0  0  0  0  0  0  0  0  0
   -3.9698    3.4427   -0.4287 N   0  0  0  0  0  0  0  0  0  0  0  0
   -3.4802    4.8086   -0.4546 C   0  0  0  0  0  0  0  0  0  0  0  0
   -2.6678    5.1031   -1.6986 C   0  0  0  0  0  0  0  0  0  0  0  0
   -2.6126    3.9282   -2.5130 N   0  0  0  0  0  0  0  0  0  0  0  0
   -1.4616    3.9157   -3.4259 C   0  0  0  0  0  0  0  0  0  0  0  0
   -0.2115    3.3780   -2.8778 C   0  0  0  0  0  0  0  0  0  0  0  0
    0.9489    3.8947   -3.4513 N   0  0  0  0  0  0  0  0  0  0  0  0
    2.1715    3.4826   -3.0162 C   0  0  0  0  0  0  0  0  0  0  0  0
    3.0423    2.3531   -3.3706 C   0  0  0  0  0  0  0  0  0  0  0  0
    2.4550    1.2345   -4.0534 N   0  0  0  0  0  0  0  0  0  0  0  0
    3.4609    0.4988   -4.7662 C   0  0  0  0  0  0  0  0  0  0  0  0
    3.8016   -0.8255   -4.1368 C   0  0  0  0  0  0  0  0  0  0  0  0
    3.0328   -1.9262   -4.7046 N   0  0  0  0  0  0  0  0  0  0  0  0
    3.7558   -3.1720   -4.6845 C   0  0  0  0  0  0  0  0  0  0  0  0
    2.8534   -4.3387   -4.2404 C   0  0  0  0  0  0  0  0  0  0  0  0
    1.9709   -3.9952   -3.1613 C   0  0  0  0  0  0  0  0  0  0  0  0
    0.8810   -4.6903   -2.8450 N   0  0  0  0  0  0  0  0  0  0  0  0
    2.1341   -3.4016   -1.9426 N   0  0  0  0  0  0  0  0  0  0  0  0
    2.3664   -4.2820   -0.8700 C   0  0  0  0  0  0  0  0  0  0  0  0
    3.3522   -3.8009    0.0703 C   0  0  0  0  0  0  0  0  0  0  0  0
    3.1912   -2.4272    0.5754 N   0  0  0  0  0  0  0  0  0  0  0  0
    4.3166   -2.1500    1.4170 C   0  0  0  0  0  0  0  0  0  0  0  0
    4.2341   -0.7772    2.0142 C   0  0  0  0  0  0  0  0  0  0  0  0
    3.3238   -0.6514    3.1060 N   0  0  0  0  0  0  0  0  0  0  0  0
    1.9184   -0.7323    2.7272 C   0  0  0  0  0  0  0  0  0  0  0  0
    0.9626    0.0521    3.5337 C   0  0  0  0  0  0  0  0  0  0  0  0
    0.9130   -0.3291    4.8744 N   0  0  0  0  0  0  0  0  0  0  0  0
    0.0708    0.3289    5.7219 C   0  0  0  0  0  0  0  0  0  0  0  0
   -1.3653    0.1950    6.0337 C   0  0  0  0  0  0  0  0  0  0  0  0
   -2.1585   -0.6322    5.1694 N   0  0  0  0  0  0  0  0  0  0  0  0
   -3.5231   -0.1983    5.0646 C   0  0  0  0  0  0  0  0  0  0  0  0
   -4.2577   -0.8627    3.9354 C   0  0  0  0  0  0  0  0  0  0  0  0
   -5.1423    0.1019    3.3435 N   0  0  0  0  0  0  0  0  0  0  0  0
   -4.6145    0.5227    2.0449 C   0  0  0  0  0  0  0  0  0  0  0  0
   -5.6126    0.4378    0.9642 C   0  0  0  0  0  0  0  0  0  0  0  0
   -6.4707    1.4190    0.5133 N   0  0  0  0  0  0  0  0  0  0  0  0
   -5.8253   -0.3432   -0.1884 C   0  0  0  0  0  0  0  0  0  0  0  0
   -6.6831   -1.9084   -0.1594 Cl  0  0  0  0  0  0  0  0  0  0  0  0
    0.8961    1.4120    5.6448 N   0  0  0  0  0  0  0  0  0  0  0  0
    0.9997    2.1467    4.4717 C   0  0  0  0  0  0  0  0  0  0  0  0
    1.9894    3.2233    4.4763 C   0  0  0  0  0  0  0  0  0  0  0  0
    1.4359    4.5640    4.6630 N   0  0  0  0  0  0  0  0  0  0  0  0
    0.8967    5.1412    3.4691 C   0  0  0  0  0  0  0  0  0  0  0  0
    1.8489    5.2145    2.3122 C   0  0  0  0  0  0  0  0  0  0  0  0
    1.6965    4.1899    1.3372 N   0  0  0  0  0  0  0  0  0  0  0  0
    0.8119    4.5642    0.2273 C   0  0  0  0  0  0  0  0  0  0  0  0
    0.9781    3.7107   -0.9589 C   0  0  0  0  0  0  0  0  0  0  0  0
    1.9374    4.1633   -1.8592 N   0  0  0  0  0  0  0  0  0  0  0  0
    0.2279    2.7457   -1.6851 C   0  0  0  0  0  0  0  0  0  0  0  0
   -0.0390    1.0580   -1.2239 Cl  0  0  0  0  0  0  0  0  0  0  0  0
    0.3720    1.3428    3.4853 C   0  0  0  0  0  0  0  0  0  0  0  0
   -1.0130    1.8163    2.4845 Cl  0  0  0  0  0  0  0  0  0  0  0  0
   -1.2564   -4.0280   -0.2553 H   0  0  0  0  0  0  0  0  0  0  0  0
   -1.9254   -4.7519   -1.6763 H   0  0  0  0  0  0  0  0  0  0  0  0
   -0.6774   -2.5481   -2.6633 H   0  0  0  0  0  0  0  0  0  0  0  0
   -3.1539   -2.2918   -1.1626 H   0  0  0  0  0  0  0  0  0  0  0  0
   -3.0218   -3.5193   -2.4241 H   0  0  0  0  0  0  0  0  0  0  0  0
   -2.7110   -2.1126   -4.1508 H   0  0  0  0  0  0  0  0  0  0  0  0
   -1.8572   -0.8792   -3.1841 H   0  0  0  0  0  0  0  0  0  0  0  0
   -3.9858   -0.2348   -4.0486 H   0  0  0  0  0  0  0  0  0  0  0  0
   -3.0269   -0.2720   -1.3146 H   0  0  0  0  0  0  0  0  0  0  0  0
   -3.4226    1.0078   -2.3676 H   0  0  0  0  0  0  0  0  0  0  0  0
   -5.5605    4.0941   -1.5049 H   0  0  0  0  0  0  0  0  0  0  0  0
   -5.7283    4.2432    0.1772 H   0  0  0  0  0  0  0  0  0  0  0  0
   -3.6726    3.0481    0.4793 H   0  0  0  0  0  0  0  0  0  0  0  0
   -2.8035    5.0292    0.4095 H   0  0  0  0  0  0  0  0  0  0  0  0
   -4.3338    5.5217   -0.3290 H   0  0  0  0  0  0  0  0  0  0  0  0
   -1.6670    5.4995   -1.4840 H   0  0  0  0  0  0  0  0  0  0  0  0
   -3.2310    5.8782   -2.2598 H   0  0  0  0  0  0  0  0  0  0  0  0
   -3.5072    3.7720   -2.9925 H   0  0  0  0  0  0  0  0  0  0  0  0
   -1.8729    3.3384   -4.3001 H   0  0  0  0  0  0  0  0  0  0  0  0
   -1.5336    4.9700   -3.7277 H   0  0  0  0  0  0  0  0  0  0  0  0
    3.8478    2.7240   -4.0614 H   0  0  0  0  0  0  0  0  0  0  0  0
    3.6179    1.8791   -2.5524 H   0  0  0  0  0  0  0  0  0  0  0  0
    1.6114    1.4639   -4.6043 H   0  0  0  0  0  0  0  0  0  0  0  0
    3.0442    0.2740   -5.7796 H   0  0  0  0  0  0  0  0  0  0  0  0
    4.3840    1.1047   -4.8384 H   0  0  0  0  0  0  0  0  0  0  0  0
    3.7198   -0.8268   -3.0397 H   0  0  0  0  0  0  0  0  0  0  0  0
    4.8705   -1.0589   -4.3652 H   0  0  0  0  0  0  0  0  0  0  0  0
    2.7819   -1.6768   -5.6794 H   0  0  0  0  0  0  0  0  0  0  0  0
    4.5357   -3.1063   -3.8930 H   0  0  0  0  0  0  0  0  0  0  0  0
    4.2694   -3.4163   -5.6163 H   0  0  0  0  0  0  0  0  0  0  0  0
    2.4020   -4.5736   -5.2382 H   0  0  0  0  0  0  0  0  0  0  0  0
    3.6088   -5.1520   -4.0871 H   0  0  0  0  0  0  0  0  0  0  0  0
    3.3779   -4.2470    1.1045 H   0  0  0  0  0  0  0  0  0  0  0  0
    4.4345   -3.9601   -0.1981 H   0  0  0  0  0  0  0  0  0  0  0  0
    3.2525   -1.7598   -0.2390 H   0  0  0  0  0  0  0  0  0  0  0  0
    5.2514   -2.1960    0.8029 H   0  0  0  0  0  0  0  0  0  0  0  0
    4.4406   -2.9408    2.1977 H   0  0  0  0  0  0  0  0  0  0  0  0
    5.2220   -0.3969    2.3592 H   0  0  0  0  0  0  0  0  0  0  0  0
    3.9221   -0.0784    1.1981 H   0  0  0  0  0  0  0  0  0  0  0  0
    3.4628    0.2868    3.5328 H   0  0  0  0  0  0  0  0  0  0  0  0
    2.0157   -0.4036    1.6540 H   0  0  0  0  0  0  0  0  0  0  0  0
    1.6026   -1.7893    2.5120 H   0  0  0  0  0  0  0  0  0  0  0  0
   -1.9539    1.1131    6.1530 H   0  0  0  0  0  0  0  0  0  0  0  0
   -1.4403   -0.2987    7.0415 H   0  0  0  0  0  0  0  0  0  0  0  0
   -1.7102   -0.8815    4.2731 H   0  0  0  0  0  0  0  0  0  0  0  0
   -3.4952    0.9061    4.8837 H   0  0  0  0  0  0  0  0  0  0  0  0
   -4.0126   -0.4013    6.0400 H   0  0  0  0  0  0  0  0  0  0  0  0
   -3.5990   -1.3532    3.2030 H   0  0  0  0  0  0  0  0  0  0  0  0
   -4.8989   -1.6624    4.3834 H   0  0  0  0  0  0  0  0  0  0  0  0
   -5.3831    0.9005    3.9538 H   0  0  0  0  0  0  0  0  0  0  0  0
   -4.1875    1.5355    2.2622 H   0  0  0  0  0  0  0  0  0  0  0  0
   -3.6554   -0.0339    1.8796 H   0  0  0  0  0  0  0  0  0  0  0  0
    2.6165    3.3396    3.5494 H   0  0  0  0  0  0  0  0  0  0  0  0
    2.8359    3.2019    5.1922 H   0  0  0  0  0  0  0  0  0  0  0  0
    0.6621    4.4654    5.3435 H   0  0  0  0  0  0  0  0  0  0  0  0
    0.6668    6.2062    3.7377 H   0  0  0  0  0  0  0  0  0  0  0  0
   -0.1031    4.7269    3.1843 H   0  0  0  0  0  0  0  0  0  0  0  0
    2.8794    5.2059    2.7503 H   0  0  0  0  0  0  0  0  0  0  0  0
    1.7807    6.1974    1.7799 H   0  0  0  0  0  0  0  0  0  0  0  0
    2.6041    3.8207    0.9986 H   0  0  0  0  0  0  0  0  0  0  0  0
    0.7965    5.6773    0.1034 H   0  0  0  0  0  0  0  0  0  0  0  0
   -0.1850    4.4903    0.7463 H   0  0  0  0  0  0  0  0  0  0  0  0
  1  2  1  0
  2  3  2  0
  3  4  1  0
  4  5  1  0
  5  6  1  0
  6  7  1  0
  7  8  1  0
  8  9  1  0
  9 10  1  0
 10 11  1  0
 11 12  2  0
 12 13  1  0
 13 14  1  0
 14 15  1  0
 15 16  1  0
 16 17  1  0
 17 18  1  0
 18 19  1  0
 19 20  1  0
 20 21  2  0
 21 22  1  0
 22 23  1  0
 23 24  1  0
 24 25  1  0
 25 26  1  0
 26 27  1  0
 27 28  1  0
 28 29  1  0
 29 30  2  0
 29 31  1  0
 31 32  2  0
 32 33  1  0
 33 34  1  0
 34 35  1  0
 35 36  1  0
 36 37  1  0
 37 38  1  0
 38 39  1  0
 39 40  2  0
 40 41  1  0
 41 42  1  0
 42 43  1  0
 43 44  1  0
 44 45  1  0
 45 46  1  0
 46 47  1  0
 47 48  1  0
 48 49  2  0
 48 50  1  0
 50 51  1  0
 41 52  2  0
 52 53  1  0
 53 54  1  0
 54 55  1  0
 55 56  1  0
 56 57  1  0
 57 58  1  0
 58 59  1  0
 59 60  1  0
 60 61  2  0
 60 62  1  0
 62 63  1  0
 53 64  2  0
 64 65  1  0
 32  2  1  0
 64 39  1  0
 30  3  1  0
 50 10  2  0
 49 12  1  0
 62 19  2  0
 61 21  1  0
  4 66  1  0
  4 67  1  0
  5 68  1  0
  6 69  1  0
  6 70  1  0
  7 71  1  0
  7 72  1  0
  8 73  1  0
  9 74  1  0
  9 75  1  0
 13 76  1  0
 13 77  1  0
 14 78  1  0
 15 79  1  0
 15 80  1  0
 16 81  1  0
 16 82  1  0
 17 83  1  0
 18 84  1  0
 18 85  1  0
 22 86  1  0
 22 87  1  0
 23 88  1  0
 24 89  1  0
 24 90  1  0
 25 91  1  0
 25 92  1  0
 26 93  1  0
 27 94  1  0
 27 95  1  0
 28 96  1  0
 28 97  1  0
 33 98  1  0
 33 99  1  0
 34100  1  0
 35101  1  0
 35102  1  0
 36103  1  0
 36104  1  0
 37105  1  0
 38106  1  0
 38107  1  0
 42108  1  0
 42109  1  0
 43110  1  0
 44111  1  0
 44112  1  0
 45113  1  0
 45114  1  0
 46115  1  0
 47116  1  0
 47117  1  0
 54118  1  0
 54119  1  0
 55120  1  0
 56121  1  0
 56122  1  0
 57123  1  0
 57124  1  0
 58125  1  0
 59126  1  0
 59127  1  0
M  END
