
     RDKit          3D

135141  0  0  0  0  0  0  0  0999 V2000
    2.4481   -3.1872   -2.8441 C   0  0  0  0  0  0  0  0  0  0  0  0
    1.9623   -3.0165   -4.0788 N   0  0  0  0  0  0  0  0  0  0  0  0
    2.3704   -1.9555   -4.8170 C   0  0  0  0  0  0  0  0  0  0  0  0
    3.4047   -1.2597   -4.3437 N   0  0  0  0  0  0  0  0  0  0  0  0
    4.3498   -2.0071   -3.6566 C   0  0  0  0  0  0  0  0  0  0  0  0
    5.7168   -2.0723   -4.0736 O   0  0  0  0  0  0  0  0  0  0  0  0
    7.1087   -2.0870   -4.4019 C   0  0  0  0  0  0  0  0  0  0  0  0
    7.7713   -0.8778   -3.9175 N   0  0  0  0  0  0  0  0  0  0  0  0
    7.2839   -0.6516   -2.5726 C   0  0  0  0  0  0  0  0  0  0  0  0
    6.5537    0.6627   -2.4662 C   0  0  0  0  0  0  0  0  0  0  0  0
    5.7206    0.6779   -1.2658 N   0  0  0  0  0  0  0  0  0  0  0  0
    4.8578    1.8239   -1.3771 C   0  0  0  0  0  0  0  0  0  0  0  0
    3.5004    1.4690   -1.1913 O   0  0  0  0  0  0  0  0  0  0  0  0
    2.1019    1.3671   -0.8419 C   0  0  0  0  0  0  0  0  0  0  0  0
    1.5536    0.3727   -1.6350 N   0  0  0  0  0  0  0  0  0  0  0  0
    0.2046    0.2010   -1.6696 C   0  0  0  0  0  0  0  0  0  0  0  0
   -0.2551    1.4745   -1.9435 N   0  0  0  0  0  0  0  0  0  0  0  0
    0.1352    2.4103   -1.0337 C   0  0  0  0  0  0  0  0  0  0  0  0
    0.9949    1.8889   -0.0263 C   0  0  0  0  0  0  0  0  0  0  0  0
    0.6499    1.6239    1.4434 C   0  0  0  0  0  0  0  0  0  0  0  0
   -0.6585    1.0531    1.6769 N   0  0  0  0  0  0  0  0  0  0  0  0
   -0.9238    1.2319    3.0805 C   0  0  0  0  0  0  0  0  0  0  0  0
   -0.4264    0.0314    3.8272 C   0  0  0  0  0  0  0  0  0  0  0  0
   -0.6772    0.0717    5.2450 N   0  0  0  0  0  0  0  0  0  0  0  0
   -0.4057    1.3485    5.8466 C   0  0  0  0  0  0  0  0  0  0  0  0
    1.0859    1.6105    6.0766 C   0  0  0  0  0  0  0  0  0  0  0  0
    1.7196    2.3898    7.0792 C   0  0  0  0  0  0  0  0  0  0  0  0
    2.1756    3.5847    6.6068 N   0  0  0  0  0  0  0  0  0  0  0  0
    1.9997    3.8248    5.2510 C   0  0  0  0  0  0  0  0  0  0  0  0
    2.6014    2.7254    4.6608 N   0  0  0  0  0  0  0  0  0  0  0  0
    2.1149    1.5226    5.0732 C   0  0  0  0  0  0  0  0  0  0  0  0
    3.1004    1.2425    4.0950 O   0  0  0  0  0  0  0  0  0  0  0  0
    4.0806    0.7024    3.2318 C   0  0  0  0  0  0  0  0  0  0  0  0
    4.1501   -0.7345    3.2805 N   0  0  0  0  0  0  0  0  0  0  0  0
    3.4324   -1.3850    2.2154 C   0  0  0  0  0  0  0  0  0  0  0  0
    4.0091   -2.7125    1.8145 C   0  0  0  0  0  0  0  0  0  0  0  0
    4.6106   -2.6967    0.4970 N   0  0  0  0  0  0  0  0  0  0  0  0
    4.0633   -3.7381   -0.3678 C   0  0  0  0  0  0  0  0  0  0  0  0
    3.0498   -3.1401   -1.3026 C   0  0  0  0  0  0  0  0  0  0  0  0
    3.6648   -2.5808   -2.5541 C   0  0  0  0  0  0  0  0  0  0  0  0
    1.1686    4.8181    4.6548 O   0  0  0  0  0  0  0  0  0  0  0  0
    0.3308    5.7546    3.9726 C   0  0  0  0  0  0  0  0  0  0  0  0
   -0.9357    5.1841    3.5941 N   0  0  0  0  0  0  0  0  0  0  0  0
   -1.1343    5.1660    2.1466 C   0  0  0  0  0  0  0  0  0  0  0  0
   -2.5137    4.6275    1.9030 C   0  0  0  0  0  0  0  0  0  0  0  0
   -2.7671    4.2714    0.5303 N   0  0  0  0  0  0  0  0  0  0  0  0
   -4.1913    4.2208    0.3390 C   0  0  0  0  0  0  0  0  0  0  0  0
   -4.5768    3.3672   -0.7386 O   0  0  0  0  0  0  0  0  0  0  0  0
   -4.9908    2.5320   -1.8158 C   0  0  0  0  0  0  0  0  0  0  0  0
   -6.2964    2.2583   -2.2022 N   0  0  0  0  0  0  0  0  0  0  0  0
   -6.7058    0.9696   -2.0494 C   0  0  0  0  0  0  0  0  0  0  0  0
   -5.6785    0.1282   -1.5316 C   0  0  0  0  0  0  0  0  0  0  0  0
   -5.5665   -0.6321   -0.2113 C   0  0  0  0  0  0  0  0  0  0  0  0
   -5.7480   -2.0691   -0.4086 N   0  0  0  0  0  0  0  0  0  0  0  0
   -4.6496   -2.7434    0.2481 C   0  0  0  0  0  0  0  0  0  0  0  0
   -3.4066   -2.7888   -0.6313 C   0  0  0  0  0  0  0  0  0  0  0  0
   -2.4006   -1.8553   -0.2067 N   0  0  0  0  0  0  0  0  0  0  0  0
   -1.1637   -2.1547   -0.8743 C   0  0  0  0  0  0  0  0  0  0  0  0
   -0.3960   -0.9874   -1.1806 O   0  0  0  0  0  0  0  0  0  0  0  0
   -4.6080    0.3472   -2.4697 C   0  0  0  0  0  0  0  0  0  0  0  0
   -4.2449    1.6520   -2.5809 N   0  0  0  0  0  0  0  0  0  0  0  0
   -3.5406    0.4115   -3.3969 O   0  0  0  0  0  0  0  0  0  0  0  0
   -2.7220    0.2586   -4.5563 C   0  0  0  0  0  0  0  0  0  0  0  0
   -1.9483   -0.9500   -4.5325 N   0  0  0  0  0  0  0  0  0  0  0  0
   -2.4689   -2.0084   -5.3486 C   0  0  0  0  0  0  0  0  0  0  0  0
   -1.4179   -2.3811   -6.3632 C   0  0  0  0  0  0  0  0  0  0  0  0
   -0.5427   -3.4335   -5.9091 N   0  0  0  0  0  0  0  0  0  0  0  0
    0.7718   -3.3727   -6.5405 C   0  0  0  0  0  0  0  0  0  0  0  0
    1.6574   -2.8392   -5.5970 O   0  0  0  0  0  0  0  0  0  0  0  0
    1.8836   -3.7482   -2.0981 H   0  0  0  0  0  0  0  0  0  0  0  0
    7.2628   -2.2537   -5.4769 H   0  0  0  0  0  0  0  0  0  0  0  0
    7.6401   -2.9295   -3.8909 H   0  0  0  0  0  0  0  0  0  0  0  0
    8.8018   -1.0945   -3.9269 H   0  0  0  0  0  0  0  0  0  0  0  0
    8.1524   -0.6186   -1.8923 H   0  0  0  0  0  0  0  0  0  0  0  0
    6.6020   -1.4359   -2.2137 H   0  0  0  0  0  0  0  0  0  0  0  0
    7.2302    1.5311   -2.5137 H   0  0  0  0  0  0  0  0  0  0  0  0
    5.8390    0.7730   -3.3205 H   0  0  0  0  0  0  0  0  0  0  0  0
    6.3683    0.7076   -0.4541 H   0  0  0  0  0  0  0  0  0  0  0  0
    5.0317    2.4235   -2.2964 H   0  0  0  0  0  0  0  0  0  0  0  0
    5.1652    2.5094   -0.5445 H   0  0  0  0  0  0  0  0  0  0  0  0
   -0.2085    3.4287   -1.2029 H   0  0  0  0  0  0  0  0  0  0  0  0
    1.2298    0.8197    1.9141 H   0  0  0  0  0  0  0  0  0  0  0  0
    0.8803    2.4931    2.0926 H   0  0  0  0  0  0  0  0  0  0  0  0
   -1.3532    1.6257    1.1558 H   0  0  0  0  0  0  0  0  0  0  0  0
   -0.4610    2.1825    3.3762 H   0  0  0  0  0  0  0  0  0  0  0  0
   -2.0132    1.3350    3.2668 H   0  0  0  0  0  0  0  0  0  0  0  0
    0.6376   -0.1881    3.5923 H   0  0  0  0  0  0  0  0  0  0  0  0
   -0.9964   -0.8478    3.4323 H   0  0  0  0  0  0  0  0  0  0  0  0
   -0.0010   -0.6088    5.6829 H   0  0  0  0  0  0  0  0  0  0  0  0
   -1.0057    1.2223    6.7472 H   0  0  0  0  0  0  0  0  0  0  0  0
   -0.9113    2.2010    5.3339 H   0  0  0  0  0  0  0  0  0  0  0  0
    1.9785    2.1167    8.1038 H   0  0  0  0  0  0  0  0  0  0  0  0
    5.0461    1.1911    3.5174 H   0  0  0  0  0  0  0  0  0  0  0  0
    3.8482    1.0730    2.2031 H   0  0  0  0  0  0  0  0  0  0  0  0
    5.1688   -0.9877    3.1803 H   0  0  0  0  0  0  0  0  0  0  0  0
    2.3780   -1.5041    2.5726 H   0  0  0  0  0  0  0  0  0  0  0  0
    3.3577   -0.6784    1.3502 H   0  0  0  0  0  0  0  0  0  0  0  0
    3.1692   -3.4509    1.7608 H   0  0  0  0  0  0  0  0  0  0  0  0
    4.7017   -3.1065    2.5797 H   0  0  0  0  0  0  0  0  0  0  0  0
    4.4686   -1.7623    0.0654 H   0  0  0  0  0  0  0  0  0  0  0  0
    3.6059   -4.5546    0.2153 H   0  0  0  0  0  0  0  0  0  0  0  0
    4.8658   -4.1824   -1.0094 H   0  0  0  0  0  0  0  0  0  0  0  0
    2.5025   -2.3842   -0.7223 H   0  0  0  0  0  0  0  0  0  0  0  0
    2.3580   -3.9735   -1.5863 H   0  0  0  0  0  0  0  0  0  0  0  0
    0.8218    6.1993    3.0924 H   0  0  0  0  0  0  0  0  0  0  0  0
    0.0974    6.6197    4.6439 H   0  0  0  0  0  0  0  0  0  0  0  0
   -1.7602    5.7064    3.9920 H   0  0  0  0  0  0  0  0  0  0  0  0
   -0.3380    4.6119    1.6310 H   0  0  0  0  0  0  0  0  0  0  0  0
   -1.1417    6.2391    1.8315 H   0  0  0  0  0  0  0  0  0  0  0  0
   -2.7350    3.7505    2.5486 H   0  0  0  0  0  0  0  0  0  0  0  0
   -3.2575    5.4038    2.1855 H   0  0  0  0  0  0  0  0  0  0  0  0
   -2.3614    5.0345   -0.0722 H   0  0  0  0  0  0  0  0  0  0  0  0
   -4.6275    3.8747    1.3102 H   0  0  0  0  0  0  0  0  0  0  0  0
   -4.5168    5.2773    0.1631 H   0  0  0  0  0  0  0  0  0  0  0  0
   -7.6797    0.6822   -2.4516 H   0  0  0  0  0  0  0  0  0  0  0  0
   -6.2917   -0.3658    0.5571 H   0  0  0  0  0  0  0  0  0  0  0  0
   -4.6376   -0.4158    0.3749 H   0  0  0  0  0  0  0  0  0  0  0  0
   -5.7406   -2.2100   -1.4507 H   0  0  0  0  0  0  0  0  0  0  0  0
   -4.9545   -3.7439    0.5975 H   0  0  0  0  0  0  0  0  0  0  0  0
   -4.4049   -2.1441    1.1532 H   0  0  0  0  0  0  0  0  0  0  0  0
   -2.9679   -3.8054   -0.5604 H   0  0  0  0  0  0  0  0  0  0  0  0
   -3.6560   -2.5961   -1.6854 H   0  0  0  0  0  0  0  0  0  0  0  0
   -2.3235   -1.7364    0.8167 H   0  0  0  0  0  0  0  0  0  0  0  0
   -1.3955   -2.7404   -1.7986 H   0  0  0  0  0  0  0  0  0  0  0  0
   -0.5945   -2.8272   -0.2201 H   0  0  0  0  0  0  0  0  0  0  0  0
   -2.0908    1.1831   -4.5687 H   0  0  0  0  0  0  0  0  0  0  0  0
   -3.3519    0.2320   -5.4686 H   0  0  0  0  0  0  0  0  0  0  0  0
   -0.9235   -0.8038   -4.6296 H   0  0  0  0  0  0  0  0  0  0  0  0
   -2.5976   -2.8975   -4.6805 H   0  0  0  0  0  0  0  0  0  0  0  0
   -3.4572   -1.8091   -5.7841 H   0  0  0  0  0  0  0  0  0  0  0  0
   -0.7748   -1.4979   -6.6045 H   0  0  0  0  0  0  0  0  0  0  0  0
   -1.9516   -2.7450   -7.2660 H   0  0  0  0  0  0  0  0  0  0  0  0
   -0.9342   -4.3827   -6.1271 H   0  0  0  0  0  0  0  0  0  0  0  0
    0.6909   -2.7863   -7.4672 H   0  0  0  0  0  0  0  0  0  0  0  0
    1.1329   -4.3891   -6.8363 H   0  0  0  0  0  0  0  0  0  0  0  0
  1  2  2  0
  2  3  1  0
  3  4  2  0
  4  5  1  0
  5  6  1  0
  6  7  1  0
  7  8  1  0
  8  9  1  0
  9 10  1  0
 10 11  1  0
 11 12  1  0
 12 13  1  0
 13 14  1  0
 14 15  2  0
 15 16  1  0
 16 17  2  0
 17 18  1  0
 18 19  2  0
 19 20  1  0
 20 21  1  0
 21 22  1  0
 22 23  1  0
 23 24  1  0
 24 25  1  0
 25 26  1  0
 26 27  2  0
 27 28  1  0
 28 29  2  0
 29 30  1  0
 30 31  2  0
 31 32  1  0
 32 33  1  0
 33 34  1  0
 34 35  1  0
 35 36  1  0
 36 37  1  0
 37 38  1  0
 38 39  1  0
 39 40  1  0
 29 41  1  0
 41 42  1  0
 42 43  1  0
 43 44  1  0
 44 45  1  0
 45 46  1  0
 46 47  1  0
 47 48  1  0
 48 49  1  0
 49 50  2  0
 50 51  1  0
 51 52  2  0
 52 53  1  0
 53 54  1  0
 54 55  1  0
 55 56  1  0
 56 57  1  0
 57 58  1  0
 58 59  1  0
 52 60  1  0
 60 61  2  0
 60 62  1  0
 62 63  1  0
 63 64  1  0
 64 65  1  0
 65 66  1  0
 66 67  1  0
 67 68  1  0
 68 69  1  0
 40  1  1  0
 61 49  1  0
 69  3  1  0
 40  5  2  0
 19 14  1  0
 31 26  1  0
 59 16  1  0
  1 70  1  0
  7 71  1  0
  7 72  1  0
  8 73  1  0
  9 74  1  0
  9 75  1  0
 10 76  1  0
 10 77  1  0
 11 78  1  0
 12 79  1  0
 12 80  1  0
 18 81  1  0
 20 82  1  0
 20 83  1  0
 21 84  1  0
 22 85  1  0
 22 86  1  0
 23 87  1  0
 23 88  1  0
 24 89  1  0
 25 90  1  0
 25 91  1  0
 27 92  1  0
 33 93  1  0
 33 94  1  0
 34 95  1  0
 35 96  1  0
 35 97  1  0
 36 98  1  0
 36 99  1  0
 37100  1  0
 38101  1  0
 38102  1  0
 39103  1  0
 39104  1  0
 42105  1  0
 42106  1  0
 43107  1  0
 44108  1  0
 44109  1  0
 45110  1  0
 45111  1  0
 46112  1  0
 47113  1  0
 47114  1  0
 51115  1  0
 53116  1  0
 53117  1  0
 54118  1  0
 55119  1  0
 55120  1  0
 56121  1  0
 56122  1  0
 57123  1  0
 58124  1  0
 58125  1  0
 63126  1  0
 63127  1  0
 64128  1  0
 65129  1  0
 65130  1  0
 66131  1  0
 66132  1  0
 67133  1  0
 68134  1  0
 68135  1  0
M  END
