
     RDKit          3D

211217  0  0  0  0  0  0  0  0999 V2000
   -2.2638    0.9077    6.1935 O   0  0  0  0  0  0  0  0  0  0  0  0
   -1.4337    1.0758    5.5671 C   0  0  0  0  0  0  0  0  0  0  0  0
   -0.5451    0.2339    6.4520 C   0  0  0  0  0  0  0  0  0  0  0  0
    0.7390   -0.0057    5.9019 N   0  0  0  0  0  0  0  0  0  0  0  0
    1.1238   -1.3595    5.6582 C   0  0  0  0  0  0  0  0  0  0  0  0
    2.5947   -1.4618    5.4069 C   0  0  0  0  0  0  0  0  0  0  0  0
    3.0027   -2.1778    4.2360 N   0  0  0  0  0  0  0  0  0  0  0  0
    2.4587   -1.8231    2.9963 C   0  0  0  0  0  0  0  0  0  0  0  0
    3.2493   -1.1799    1.9423 C   0  0  0  0  0  0  0  0  0  0  0  0
    3.1245   -1.4845    0.5199 C   0  0  0  0  0  0  0  0  0  0  0  0
    2.7827   -0.3684   -0.3213 O   0  0  0  0  0  0  0  0  0  0  0  0
    2.1488    0.5500   -1.2018 C   0  0  0  0  0  0  0  0  0  0  0  0
    3.2359    1.0596   -0.5956 C   0  0  0  0  0  0  0  0  0  0  0  0
    3.6017    2.2862   -1.1198 C   0  0  0  0  0  0  0  0  0  0  0  0
    3.0322    2.8236   -2.2657 C   0  0  0  0  0  0  0  0  0  0  0  0
    2.0702    2.0032   -2.8464 C   0  0  0  0  0  0  0  0  0  0  0  0
    1.2003    1.3850   -1.9082 C   0  0  0  0  0  0  0  0  0  0  0  0
   -0.2097    1.6400   -1.7228 O   0  0  0  0  0  0  0  0  0  0  0  0
   -1.6243    1.7437   -1.5064 C   0  0  0  0  0  0  0  0  0  0  0  0
   -2.5804    1.6998   -2.5066 C   0  0  0  0  0  0  0  0  0  0  0  0
   -3.5499    0.8424   -3.1644 C   0  0  0  0  0  0  0  0  0  0  0  0
   -4.9133    0.7787   -2.7246 N   0  0  0  0  0  0  0  0  0  0  0  0
   -5.9896    0.8565   -3.5815 C   0  0  0  0  0  0  0  0  0  0  0  0
   -7.2347    1.5656   -3.2304 C   0  0  0  0  0  0  0  0  0  0  0  0
   -7.2989    2.8300   -2.6582 N   0  0  0  0  0  0  0  0  0  0  0  0
   -8.0688    3.8511   -3.2746 C   0  0  0  0  0  0  0  0  0  0  0  0
   -7.6676    5.2718   -2.9770 C   0  0  0  0  0  0  0  0  0  0  0  0
   -8.7487    5.6699   -3.3347 O   0  0  0  0  0  0  0  0  0  0  0  0
   -6.9276    6.5735   -3.2480 C   0  0  0  0  0  0  0  0  0  0  0  0
   -5.6558    6.4244   -4.0774 C   0  0  0  0  0  0  0  0  0  0  0  0
   -5.2690    5.3149   -4.8981 C   0  0  0  0  0  0  0  0  0  0  0  0
   -4.6373    4.3835   -4.0598 C   0  0  0  0  0  0  0  0  0  0  0  0
   -4.1451    4.9475   -2.8235 C   0  0  0  0  0  0  0  0  0  0  0  0
   -4.5270    4.6357   -1.4430 O   0  0  0  0  0  0  0  0  0  0  0  0
   -5.0947    4.4182   -0.1421 C   0  0  0  0  0  0  0  0  0  0  0  0
   -4.5125    3.3236    0.6534 C   0  0  0  0  0  0  0  0  0  0  0  0
   -5.0698    1.9741    0.5768 C   0  0  0  0  0  0  0  0  0  0  0  0
   -5.3675    1.0780    1.7143 C   0  0  0  0  0  0  0  0  0  0  0  0
   -5.2815   -0.3094    1.2627 N   0  0  0  0  0  0  0  0  0  0  0  0
   -5.1282   -1.3214    2.2417 C   0  0  0  0  0  0  0  0  0  0  0  0
   -4.3979   -2.5639    1.7404 C   0  0  0  0  0  0  0  0  0  0  0  0
   -3.7017   -3.2774    2.7585 N   0  0  0  0  0  0  0  0  0  0  0  0
   -3.0586   -4.4793    2.4760 C   0  0  0  0  0  0  0  0  0  0  0  0
   -1.6513   -4.5137    2.0173 C   0  0  0  0  0  0  0  0  0  0  0  0
   -0.5847   -4.7367    3.0335 C   0  0  0  0  0  0  0  0  0  0  0  0
    0.6396   -5.2005    2.4296 O   0  0  0  0  0  0  0  0  0  0  0  0
    1.8866   -5.7836    1.9727 C   0  0  0  0  0  0  0  0  0  0  0  0
    1.9841   -6.8460    1.0252 C   0  0  0  0  0  0  0  0  0  0  0  0
    2.4933   -6.4091   -0.1975 C   0  0  0  0  0  0  0  0  0  0  0  0
    3.5698   -5.5324   -0.0966 C   0  0  0  0  0  0  0  0  0  0  0  0
    4.1282   -5.2251    1.1430 C   0  0  0  0  0  0  0  0  0  0  0  0
    3.2484   -5.3843    2.2070 C   0  0  0  0  0  0  0  0  0  0  0  0
    4.5199   -4.8862    2.5622 O   0  0  0  0  0  0  0  0  0  0  0  0
    5.7653   -4.4992    3.1540 C   0  0  0  0  0  0  0  0  0  0  0  0
    6.4428   -3.4134    2.4029 C   0  0  0  0  0  0  0  0  0  0  0  0
    7.2501   -2.4109    3.1298 C   0  0  0  0  0  0  0  0  0  0  0  0
    6.7055   -1.3506    3.8475 N   0  0  0  0  0  0  0  0  0  0  0  0
    6.7614   -0.0283    3.2832 C   0  0  0  0  0  0  0  0  0  0  0  0
    6.1593    1.0583    4.0771 C   0  0  0  0  0  0  0  0  0  0  0  0
    4.8279    1.4666    3.8746 N   0  0  0  0  0  0  0  0  0  0  0  0
    4.5636    2.4394    2.8797 C   0  0  0  0  0  0  0  0  0  0  0  0
    3.2115    2.9920    2.7301 C   0  0  0  0  0  0  0  0  0  0  0  0
    2.0220    2.3756    3.2959 C   0  0  0  0  0  0  0  0  0  0  0  0
    1.1129    1.8439    2.3098 O   0  0  0  0  0  0  0  0  0  0  0  0
    0.1912    0.8909    1.7836 C   0  0  0  0  0  0  0  0  0  0  0  0
   -0.4757    1.9928    2.1754 C   0  0  0  0  0  0  0  0  0  0  0  0
   -1.6913    1.6397    2.7643 C   0  0  0  0  0  0  0  0  0  0  0  0
   -1.9081    0.3384    3.2217 C   0  0  0  0  0  0  0  0  0  0  0  0
   -1.2360   -0.6872    2.6327 C   0  0  0  0  0  0  0  0  0  0  0  0
   -0.5010   -0.3416    1.4659 C   0  0  0  0  0  0  0  0  0  0  0  0
   -0.5551   -1.1295    0.2614 O   0  0  0  0  0  0  0  0  0  0  0  0
   -0.3669   -2.0562   -0.8257 C   0  0  0  0  0  0  0  0  0  0  0  0
   -1.3272   -2.0009   -1.9057 C   0  0  0  0  0  0  0  0  0  0  0  0
   -0.8625   -1.9932   -3.3335 C   0  0  0  0  0  0  0  0  0  0  0  0
   -0.3157   -0.9020   -3.9592 N   0  0  0  0  0  0  0  0  0  0  0  0
   -0.7078   -0.4532   -5.2416 C   0  0  0  0  0  0  0  0  0  0  0  0
   -0.1056    0.8122   -5.7669 C   0  0  0  0  0  0  0  0  0  0  0  0
   -0.6926    2.0188   -5.4489 N   0  0  0  0  0  0  0  0  0  0  0  0
   -0.2930    3.2958   -5.7138 C   0  0  0  0  0  0  0  0  0  0  0  0
   -0.2485    4.3326   -4.5972 C   0  0  0  0  0  0  0  0  0  0  0  0
   -0.8431    5.6495   -4.8117 C   0  0  0  0  0  0  0  0  0  0  0  0
   -1.9887    6.0127   -3.9963 O   0  0  0  0  0  0  0  0  0  0  0  0
   -3.3396    6.0493   -3.4261 C   0  0  0  0  0  0  0  0  0  0  0  0
   -4.3615    6.9997   -3.8155 C   0  0  0  0  0  0  0  0  0  0  0  0
   -2.2150    1.2341    4.2841 C   0  0  0  0  0  0  0  0  0  0  0  0
    3.2143   -6.2595   -1.4660 C   0  0  0  0  0  0  0  0  0  0  0  0
    3.2326   -4.8096   -1.8465 C   0  0  0  0  0  0  0  0  0  0  0  0
    2.0113   -4.8204   -1.9911 O   0  0  0  0  0  0  0  0  0  0  0  0
    3.3650   -3.5904   -2.6659 C   0  0  0  0  0  0  0  0  0  0  0  0
    4.7167   -3.0350   -2.6369 N   0  0  0  0  0  0  0  0  0  0  0  0
    4.7819   -1.7267   -3.2144 C   0  0  0  0  0  0  0  0  0  0  0  0
    5.9180   -0.9207   -2.5936 C   0  0  0  0  0  0  0  0  0  0  0  0
    5.9539    0.4344   -3.0786 N   0  0  0  0  0  0  0  0  0  0  0  0
    6.3643    1.3976   -2.0919 C   0  0  0  0  0  0  0  0  0  0  0  0
    5.4266    2.5631   -1.9827 C   0  0  0  0  0  0  0  0  0  0  0  0
    5.6080    2.8734   -3.1573 O   0  0  0  0  0  0  0  0  0  0  0  0
    4.2610    3.4998   -1.8132 C   0  0  0  0  0  0  0  0  0  0  0  0
   -0.4079    0.8869    7.3523 H   0  0  0  0  0  0  0  0  0  0  0  0
   -1.0669   -0.6644    6.8274 H   0  0  0  0  0  0  0  0  0  0  0  0
    1.5309    0.4486    6.4300 H   0  0  0  0  0  0  0  0  0  0  0  0
    0.8985   -1.9292    6.5967 H   0  0  0  0  0  0  0  0  0  0  0  0
    0.5710   -1.8748    4.8656 H   0  0  0  0  0  0  0  0  0  0  0  0
    3.1234   -1.9414    6.2701 H   0  0  0  0  0  0  0  0  0  0  0  0
    3.0110   -0.4401    5.3504 H   0  0  0  0  0  0  0  0  0  0  0  0
    3.9954   -2.3527    4.3270 H   0  0  0  0  0  0  0  0  0  0  0  0
    1.8247   -2.6067    2.5075 H   0  0  0  0  0  0  0  0  0  0  0  0
    1.7032   -1.0814    3.3689 H   0  0  0  0  0  0  0  0  0  0  0  0
    3.1213   -0.0914    1.9893 H   0  0  0  0  0  0  0  0  0  0  0  0
    4.2839   -1.3230    2.2351 H   0  0  0  0  0  0  0  0  0  0  0  0
    4.0964   -1.8303    0.0770 H   0  0  0  0  0  0  0  0  0  0  0  0
    2.4464   -2.3363    0.3807 H   0  0  0  0  0  0  0  0  0  0  0  0
    3.9643    0.3552   -0.1820 H   0  0  0  0  0  0  0  0  0  0  0  0
    4.4378    2.7928   -0.6307 H   0  0  0  0  0  0  0  0  0  0  0  0
    1.9835    2.0785   -3.9126 H   0  0  0  0  0  0  0  0  0  0  0  0
   -1.9859    1.0661   -0.7006 H   0  0  0  0  0  0  0  0  0  0  0  0
   -1.6316    2.7295   -0.9520 H   0  0  0  0  0  0  0  0  0  0  0  0
   -2.3232    2.5374   -3.2095 H   0  0  0  0  0  0  0  0  0  0  0  0
   -3.4153    2.2466   -1.9640 H   0  0  0  0  0  0  0  0  0  0  0  0
   -3.6766    1.1927   -4.2309 H   0  0  0  0  0  0  0  0  0  0  0  0
   -3.3025   -0.2115   -3.3490 H   0  0  0  0  0  0  0  0  0  0  0  0
   -5.0480    0.0680   -1.9672 H   0  0  0  0  0  0  0  0  0  0  0  0
   -6.3050   -0.1954   -3.8255 H   0  0  0  0  0  0  0  0  0  0  0  0
   -5.6575    1.2385   -4.5826 H   0  0  0  0  0  0  0  0  0  0  0  0
   -7.8518    1.5914   -4.1694 H   0  0  0  0  0  0  0  0  0  0  0  0
   -7.8232    0.8736   -2.5682 H   0  0  0  0  0  0  0  0  0  0  0  0
   -7.5608    2.8131   -1.6366 H   0  0  0  0  0  0  0  0  0  0  0  0
   -9.1121    3.7754   -2.8738 H   0  0  0  0  0  0  0  0  0  0  0  0
   -8.1485    3.6449   -4.3498 H   0  0  0  0  0  0  0  0  0  0  0  0
   -7.6685    7.2322   -3.7222 H   0  0  0  0  0  0  0  0  0  0  0  0
   -6.8367    6.8661   -2.2098 H   0  0  0  0  0  0  0  0  0  0  0  0
   -5.5804    5.0799   -5.9099 H   0  0  0  0  0  0  0  0  0  0  0  0
   -4.6337    3.3720   -4.4017 H   0  0  0  0  0  0  0  0  0  0  0  0
   -6.1994    4.2432   -0.1967 H   0  0  0  0  0  0  0  0  0  0  0  0
   -5.0268    5.3788    0.4341 H   0  0  0  0  0  0  0  0  0  0  0  0
   -3.4011    3.3940    0.5044 H   0  0  0  0  0  0  0  0  0  0  0  0
   -4.6150    3.6222    1.7334 H   0  0  0  0  0  0  0  0  0  0  0  0
   -5.9290    1.9561   -0.1079 H   0  0  0  0  0  0  0  0  0  0  0  0
   -4.2572    1.3857    0.0689 H   0  0  0  0  0  0  0  0  0  0  0  0
   -4.8370    1.2688    2.6460 H   0  0  0  0  0  0  0  0  0  0  0  0
   -6.4544    1.2149    1.9575 H   0  0  0  0  0  0  0  0  0  0  0  0
   -6.1012   -0.5137    0.6501 H   0  0  0  0  0  0  0  0  0  0  0  0
   -4.7335   -0.9783    3.2225 H   0  0  0  0  0  0  0  0  0  0  0  0
   -6.1594   -1.6932    2.4813 H   0  0  0  0  0  0  0  0  0  0  0  0
   -3.6982   -2.2223    0.9561 H   0  0  0  0  0  0  0  0  0  0  0  0
   -5.1110   -3.2681    1.2418 H   0  0  0  0  0  0  0  0  0  0  0  0
   -4.2934   -3.3186    3.6124 H   0  0  0  0  0  0  0  0  0  0  0  0
   -3.1151   -5.1323    3.3867 H   0  0  0  0  0  0  0  0  0  0  0  0
   -3.6688   -5.0361    1.7171 H   0  0  0  0  0  0  0  0  0  0  0  0
   -1.4649   -3.5425    1.5605 H   0  0  0  0  0  0  0  0  0  0  0  0
   -1.4913   -5.2745    1.2105 H   0  0  0  0  0  0  0  0  0  0  0  0
   -0.9798   -5.4854    3.7669 H   0  0  0  0  0  0  0  0  0  0  0  0
   -0.3924   -3.8362    3.6323 H   0  0  0  0  0  0  0  0  0  0  0  0
    1.6740   -7.8851    1.1784 H   0  0  0  0  0  0  0  0  0  0  0  0
    4.2823   -5.4917   -0.9237 H   0  0  0  0  0  0  0  0  0  0  0  0
    5.2008   -5.3784    1.3043 H   0  0  0  0  0  0  0  0  0  0  0  0
    5.5880   -4.1442    4.2011 H   0  0  0  0  0  0  0  0  0  0  0  0
    6.3668   -5.4310    3.2684 H   0  0  0  0  0  0  0  0  0  0  0  0
    5.7871   -2.9956    1.5968 H   0  0  0  0  0  0  0  0  0  0  0  0
    7.1979   -3.9735    1.7774 H   0  0  0  0  0  0  0  0  0  0  0  0
    7.9651   -1.9653    2.3870 H   0  0  0  0  0  0  0  0  0  0  0  0
    7.9210   -2.9906    3.8176 H   0  0  0  0  0  0  0  0  0  0  0  0
    7.0376   -1.2672    4.8446 H   0  0  0  0  0  0  0  0  0  0  0  0
    7.8446    0.1763    3.0820 H   0  0  0  0  0  0  0  0  0  0  0  0
    6.2888   -0.0179    2.2678 H   0  0  0  0  0  0  0  0  0  0  0  0
    6.2720    0.7842    5.1588 H   0  0  0  0  0  0  0  0  0  0  0  0
    6.8093    1.9656    3.9656 H   0  0  0  0  0  0  0  0  0  0  0  0
    4.3546    1.7445    4.7665 H   0  0  0  0  0  0  0  0  0  0  0  0
    4.8535    1.9717    1.9020 H   0  0  0  0  0  0  0  0  0  0  0  0
    5.3416    3.2380    3.0115 H   0  0  0  0  0  0  0  0  0  0  0  0
    2.9784    3.2515    1.6658 H   0  0  0  0  0  0  0  0  0  0  0  0
    3.2601    4.0187    3.1949 H   0  0  0  0  0  0  0  0  0  0  0  0
    2.4121    1.5665    3.9680 H   0  0  0  0  0  0  0  0  0  0  0  0
    1.4236    3.0164    3.9948 H   0  0  0  0  0  0  0  0  0  0  0  0
    0.1165    2.8544    2.4554 H   0  0  0  0  0  0  0  0  0  0  0  0
   -2.2110    2.4093    3.3388 H   0  0  0  0  0  0  0  0  0  0  0  0
   -1.1952   -1.6534    3.1543 H   0  0  0  0  0  0  0  0  0  0  0  0
   -0.2756   -3.1130   -0.4486 H   0  0  0  0  0  0  0  0  0  0  0  0
    0.6232   -1.9584   -1.2939 H   0  0  0  0  0  0  0  0  0  0  0  0
   -2.0771   -1.2616   -1.6306 H   0  0  0  0  0  0  0  0  0  0  0  0
   -1.9453   -2.9470   -1.8518 H   0  0  0  0  0  0  0  0  0  0  0  0
   -0.1573   -2.8623   -3.4173 H   0  0  0  0  0  0  0  0  0  0  0  0
   -1.7423   -2.3142   -3.9547 H   0  0  0  0  0  0  0  0  0  0  0  0
    0.7376   -0.9541   -3.9593 H   0  0  0  0  0  0  0  0  0  0  0  0
   -1.8038   -0.3870   -5.4080 H   0  0  0  0  0  0  0  0  0  0  0  0
   -0.3898   -1.2726   -5.9426 H   0  0  0  0  0  0  0  0  0  0  0  0
   -0.1456    0.7275   -6.8887 H   0  0  0  0  0  0  0  0  0  0  0  0
    0.9928    0.7267   -5.5657 H   0  0  0  0  0  0  0  0  0  0  0  0
   -1.7401    1.9210   -5.5233 H   0  0  0  0  0  0  0  0  0  0  0  0
    0.6710    3.2718   -6.2886 H   0  0  0  0  0  0  0  0  0  0  0  0
   -1.0046    3.7553   -6.4530 H   0  0  0  0  0  0  0  0  0  0  0  0
    0.8540    4.5152   -4.4562 H   0  0  0  0  0  0  0  0  0  0  0  0
   -0.5336    3.9356   -3.6172 H   0  0  0  0  0  0  0  0  0  0  0  0
   -0.1557    6.5038   -4.5721 H   0  0  0  0  0  0  0  0  0  0  0  0
   -1.0443    5.7558   -5.8894 H   0  0  0  0  0  0  0  0  0  0  0  0
   -4.1502    8.0752   -3.9260 H   0  0  0  0  0  0  0  0  0  0  0  0
   -2.0905    2.3184    4.0292 H   0  0  0  0  0  0  0  0  0  0  0  0
   -3.2857    1.1645    4.6094 H   0  0  0  0  0  0  0  0  0  0  0  0
    4.2736   -6.6087   -1.3579 H   0  0  0  0  0  0  0  0  0  0  0  0
    2.8010   -6.8970   -2.2875 H   0  0  0  0  0  0  0  0  0  0  0  0
    3.1131   -3.7234   -3.7290 H   0  0  0  0  0  0  0  0  0  0  0  0
    2.6205   -2.8559   -2.2670 H   0  0  0  0  0  0  0  0  0  0  0  0
    5.1385   -3.0862   -1.6844 H   0  0  0  0  0  0  0  0  0  0  0  0
    5.0702   -1.8570   -4.2885 H   0  0  0  0  0  0  0  0  0  0  0  0
    3.8317   -1.1753   -3.2221 H   0  0  0  0  0  0  0  0  0  0  0  0
    6.8541   -1.4824   -2.8173 H   0  0  0  0  0  0  0  0  0  0  0  0
    5.8292   -0.8917   -1.4782 H   0  0  0  0  0  0  0  0  0  0  0  0
    6.6613    0.4559   -3.8603 H   0  0  0  0  0  0  0  0  0  0  0  0
    7.3666    1.8313   -2.3024 H   0  0  0  0  0  0  0  0  0  0  0  0
    6.3884    0.8998   -1.1008 H   0  0  0  0  0  0  0  0  0  0  0  0
    4.1110    3.7815   -0.7560 H   0  0  0  0  0  0  0  0  0  0  0  0
    4.4973    4.4237   -2.3594 H   0  0  0  0  0  0  0  0  0  0  0  0
  1  2  2  0
  2  3  1  0
  3  4  1  0
  4  5  1  0
  5  6  1  0
  6  7  1  0
  7  8  1  0
  8  9  1  0
  9 10  1  0
 10 11  1  0
 11 12  1  0
 12 13  2  0
 13 14  1  0
 14 15  2  0
 15 16  1  0
 16 17  2  0
 17 18  1  0
 18 19  1  0
 19 20  1  0
 20 21  1  0
 21 22  1  0
 22 23  1  0
 23 24  1  0
 24 25  1  0
 25 26  1  0
 26 27  1  0
 27 28  2  0
 27 29  1  0
 29 30  1  0
 30 31  2  0
 31 32  1  0
 32 33  2  0
 33 34  1  0
 34 35  1  0
 35 36  1  0
 36 37  1  0
 37 38  1  0
 38 39  1  0
 39 40  1  0
 40 41  1  0
 41 42  1  0
 42 43  1  0
 43 44  1  0
 44 45  1  0
 45 46  1  0
 46 47  1  0
 47 48  2  0
 48 49  1  0
 49 50  2  0
 50 51  1  0
 51 52  2  0
 52 53  1  0
 53 54  1  0
 54 55  1  0
 55 56  1  0
 56 57  1  0
 57 58  1  0
 58 59  1  0
 59 60  1  0
 60 61  1  0
 61 62  1  0
 62 63  1  0
 63 64  1  0
 64 65  1  0
 65 66  2  0
 66 67  1  0
 67 68  2  0
 68 69  1  0
 69 70  2  0
 70 71  1  0
 71 72  1  0
 72 73  1  0
 73 74  1  0
 74 75  1  0
 75 76  1  0
 76 77  1  0
 77 78  1  0
 78 79  1  0
 79 80  1  0
 80 81  1  0
 81 82  1  0
 82 83  1  0
 83 84  2  0
 68 85  1  0
 49 86  1  0
 86 87  1  0
 87 88  2  0
 87 89  1  0
 89 90  1  0
 90 91  1  0
 91 92  1  0
 92 93  1  0
 93 94  1  0
 94 95  1  0
 95 96  2  0
 95 97  1  0
 85  2  1  0
 17 12  1  0
 84 30  1  0
 97 15  1  0
 83 33  1  0
 52 47  1  0
 70 65  1  0
  3 98  1  0
  3 99  1  0
  4100  1  0
  5101  1  0
  5102  1  0
  6103  1  0
  6104  1  0
  7105  1  0
  8106  1  0
  8107  1  0
  9108  1  0
  9109  1  0
 10110  1  0
 10111  1  0
 13112  1  0
 14113  1  0
 16114  1  0
 19115  1  0
 19116  1  0
 20117  1  0
 20118  1  0
 21119  1  0
 21120  1  0
 22121  1  0
 23122  1  0
 23123  1  0
 24124  1  0
 24125  1  0
 25126  1  0
 26127  1  0
 26128  1  0
 29129  1  0
 29130  1  0
 31131  1  0
 32132  1  0
 35133  1  0
 35134  1  0
 36135  1  0
 36136  1  0
 37137  1  0
 37138  1  0
 38139  1  0
 38140  1  0
 39141  1  0
 40142  1  0
 40143  1  0
 41144  1  0
 41145  1  0
 42146  1  0
 43147  1  0
 43148  1  0
 44149  1  0
 44150  1  0
 45151  1  0
 45152  1  0
 48153  1  0
 50154  1  0
 51155  1  0
 54156  1  0
 54157  1  0
 55158  1  0
 55159  1  0
 56160  1  0
 56161  1  0
 57162  1  0
 58163  1  0
 58164  1  0
 59165  1  0
 59166  1  0
 60167  1  0
 61168  1  0
 61169  1  0
 62170  1  0
 62171  1  0
 63172  1  0
 63173  1  0
 66174  1  0
 67175  1  0
 69176  1  0
 72177  1  0
 72178  1  0
 73179  1  0
 73180  1  0
 74181  1  0
 74182  1  0
 75183  1  0
 76184  1  0
 76185  1  0
 77186  1  0
 77187  1  0
 78188  1  0
 79189  1  0
 79190  1  0
 80191  1  0
 80192  1  0
 81193  1  0
 81194  1  0
 84195  1  0
 85196  1  0
 85197  1  0
 86198  1  0
 86199  1  0
 89200  1  0
 89201  1  0
 90202  1  0
 91203  1  0
 91204  1  0
 92205  1  0
 92206  1  0
 93207  1  0
 94208  1  0
 94209  1  0
 97210  1  0
 97211  1  0
M  END
