
     RDKit          3D

171173  0  0  0  0  0  0  0  0999 V2000
   -6.1180    1.5651    4.3647 O   0  0  0  0  0  0  0  0  0  0  0  0
   -5.3718    1.1880    4.8192 C   0  0  0  0  0  0  0  0  0  0  0  0
   -4.9212    2.5463    5.2684 C   0  0  0  0  0  0  0  0  0  0  0  0
   -5.5391    3.5550    4.3115 C   0  0  0  0  0  0  0  0  0  0  0  0
   -4.9666    4.9136    4.5137 C   0  0  0  0  0  0  0  0  0  0  0  0
   -6.0773    5.5231    4.5263 O   0  0  0  0  0  0  0  0  0  0  0  0
   -4.1571    6.0462    4.3840 O   0  0  0  0  0  0  0  0  0  0  0  0
   -3.2089    7.0522    4.0348 C   0  0  0  0  0  0  0  0  0  0  0  0
   -2.4494    6.7117    2.7862 C   0  0  0  0  0  0  0  0  0  0  0  0
   -1.0622    6.4376    3.0350 N   0  0  0  0  0  0  0  0  0  0  0  0
   -0.8074    5.4455    4.0229 C   0  0  0  0  0  0  0  0  0  0  0  0
   -0.6740    4.0452    3.5076 C   0  0  0  0  0  0  0  0  0  0  0  0
   -1.8517    3.6457    2.7486 N   0  0  0  0  0  0  0  0  0  0  0  0
   -1.9197    2.2032    2.8172 C   0  0  0  0  0  0  0  0  0  0  0  0
   -0.9595    1.5923    1.8401 C   0  0  0  0  0  0  0  0  0  0  0  0
    0.1179    0.8563    2.5003 N   0  0  0  0  0  0  0  0  0  0  0  0
    1.2326    0.9015    1.5898 C   0  0  0  0  0  0  0  0  0  0  0  0
    2.2404   -0.0910    1.8411 N   0  0  0  0  0  0  0  0  0  0  0  0
    2.9479    0.1834    3.0662 C   0  0  0  0  0  0  0  0  0  0  0  0
    2.9111   -0.9588    4.0447 C   0  0  0  0  0  0  0  0  0  0  0  0
    3.7467   -2.0331    3.6225 O   0  0  0  0  0  0  0  0  0  0  0  0
    4.4924   -2.9678    2.9006 C   0  0  0  0  0  0  0  0  0  0  0  0
    5.5434   -2.7099    3.5598 O   0  0  0  0  0  0  0  0  0  0  0  0
    5.2274   -3.7408    1.8560 C   0  0  0  0  0  0  0  0  0  0  0  0
    4.4318   -4.9393    1.3816 C   0  0  0  0  0  0  0  0  0  0  0  0
    4.1283   -4.7746   -0.0766 C   0  0  0  0  0  0  0  0  0  0  0  0
    5.3254   -4.7773   -0.3486 O   0  0  0  0  0  0  0  0  0  0  0  0
    3.7391   -4.7689   -1.5139 C   0  0  0  0  0  0  0  0  0  0  0  0
    2.3279   -4.5147   -1.6898 N   0  0  0  0  0  0  0  0  0  0  0  0
    1.6262   -5.6744   -2.2338 C   0  0  0  0  0  0  0  0  0  0  0  0
    0.6639   -5.2065   -3.2914 C   0  0  0  0  0  0  0  0  0  0  0  0
   -0.6120   -5.9103   -3.2262 N   0  0  0  0  0  0  0  0  0  0  0  0
   -1.5017   -5.2147   -4.1524 C   0  0  0  0  0  0  0  0  0  0  0  0
   -2.8798   -5.2335   -3.5712 C   0  0  0  0  0  0  0  0  0  0  0  0
   -2.6362   -6.2506   -2.9439 O   0  0  0  0  0  0  0  0  0  0  0  0
   -4.2739   -5.0589   -3.0868 C   0  0  0  0  0  0  0  0  0  0  0  0
   -4.6228   -6.1662   -2.1299 C   0  0  0  0  0  0  0  0  0  0  0  0
   -3.9911   -5.9448   -0.7982 C   0  0  0  0  0  0  0  0  0  0  0  0
   -4.6627   -6.8419   -0.2241 O   0  0  0  0  0  0  0  0  0  0  0  0
   -3.0334   -5.7973    0.1908 O   0  0  0  0  0  0  0  0  0  0  0  0
   -1.9019   -5.6163    1.0324 C   0  0  0  0  0  0  0  0  0  0  0  0
   -1.2207   -4.3253    0.6282 C   0  0  0  0  0  0  0  0  0  0  0  0
   -2.0915   -3.1979    0.9529 N   0  0  0  0  0  0  0  0  0  0  0  0
   -1.9905   -2.9413    2.3668 C   0  0  0  0  0  0  0  0  0  0  0  0
   -3.2655   -2.7223    3.0048 N   0  0  0  0  0  0  0  0  0  0  0  0
   -3.4340   -1.3542    3.4657 C   0  0  0  0  0  0  0  0  0  0  0  0
   -3.7321   -1.2573    4.9297 C   0  0  0  0  0  0  0  0  0  0  0  0
   -5.1209   -1.2030    5.2607 N   0  0  0  0  0  0  0  0  0  0  0  0
   -5.8738   -0.1985    4.5765 C   0  0  0  0  0  0  0  0  0  0  0  0
   -1.5882   -2.0630    0.2215 C   0  0  0  0  0  0  0  0  0  0  0  0
   -1.4030   -2.3178   -1.1839 N   0  0  0  0  0  0  0  0  0  0  0  0
   -0.4054   -1.4507   -1.7737 C   0  0  0  0  0  0  0  0  0  0  0  0
   -0.8018   -0.9646   -3.1513 C   0  0  0  0  0  0  0  0  0  0  0  0
    0.2933   -1.0464   -4.0995 N   0  0  0  0  0  0  0  0  0  0  0  0
    0.7369    0.2475   -4.5561 C   0  0  0  0  0  0  0  0  0  0  0  0
    2.2057    0.3511   -4.6909 C   0  0  0  0  0  0  0  0  0  0  0  0
    2.1890    0.4463   -5.9127 O   0  0  0  0  0  0  0  0  0  0  0  0
    3.7046    0.3303   -4.6609 C   0  0  0  0  0  0  0  0  0  0  0  0
    4.2804    1.5278   -5.3634 C   0  0  0  0  0  0  0  0  0  0  0  0
    5.3388    2.2071   -4.5529 C   0  0  0  0  0  0  0  0  0  0  0  0
    6.1074    1.2258   -4.5256 O   0  0  0  0  0  0  0  0  0  0  0  0
    5.8633    2.8925   -3.4558 O   0  0  0  0  0  0  0  0  0  0  0  0
    6.1921    3.4842   -2.2009 C   0  0  0  0  0  0  0  0  0  0  0  0
    5.4190    4.7455   -1.9410 C   0  0  0  0  0  0  0  0  0  0  0  0
    4.2884    4.5613   -1.0682 N   0  0  0  0  0  0  0  0  0  0  0  0
    4.4087    5.2414    0.1916 C   0  0  0  0  0  0  0  0  0  0  0  0
    3.2962    6.0999    0.5044 N   0  0  0  0  0  0  0  0  0  0  0  0
    2.6941    5.7719    1.7941 C   0  0  0  0  0  0  0  0  0  0  0  0
    1.9729    6.9371    2.4068 C   0  0  0  0  0  0  0  0  0  0  0  0
    0.7664    7.3068    1.7238 N   0  0  0  0  0  0  0  0  0  0  0  0
   -0.2945    6.3406    1.8350 C   0  0  0  0  0  0  0  0  0  0  0  0
    3.0994    4.8970   -1.8054 C   0  0  0  0  0  0  0  0  0  0  0  0
    2.5964    3.6504   -2.3795 N   0  0  0  0  0  0  0  0  0  0  0  0
    2.0858    2.8658   -1.2877 C   0  0  0  0  0  0  0  0  0  0  0  0
    2.8495    1.5884   -1.0544 C   0  0  0  0  0  0  0  0  0  0  0  0
    3.2626    1.4121    0.3138 N   0  0  0  0  0  0  0  0  0  0  0  0
    3.1986    0.0164    0.7413 C   0  0  0  0  0  0  0  0  0  0  0  0
   -5.2783    2.7947    6.2796 H   0  0  0  0  0  0  0  0  0  0  0  0
   -3.8262    2.6371    5.2783 H   0  0  0  0  0  0  0  0  0  0  0  0
   -5.4101    3.1786    3.2866 H   0  0  0  0  0  0  0  0  0  0  0  0
   -6.6267    3.6084    4.5079 H   0  0  0  0  0  0  0  0  0  0  0  0
   -3.8131    7.9849    3.8976 H   0  0  0  0  0  0  0  0  0  0  0  0
   -2.5436    7.2757    4.9067 H   0  0  0  0  0  0  0  0  0  0  0  0
   -2.4833    7.6106    2.1190 H   0  0  0  0  0  0  0  0  0  0  0  0
   -2.9757    5.9154    2.2287 H   0  0  0  0  0  0  0  0  0  0  0  0
    0.0793    5.6499    4.6660 H   0  0  0  0  0  0  0  0  0  0  0  0
   -1.6763    5.4413    4.7295 H   0  0  0  0  0  0  0  0  0  0  0  0
    0.2681    3.8386    2.9805 H   0  0  0  0  0  0  0  0  0  0  0  0
   -0.6668    3.3757    4.4059 H   0  0  0  0  0  0  0  0  0  0  0  0
   -1.7663    3.8907    1.7344 H   0  0  0  0  0  0  0  0  0  0  0  0
   -1.7998    1.8236    3.8552 H   0  0  0  0  0  0  0  0  0  0  0  0
   -2.9613    1.9192    2.5211 H   0  0  0  0  0  0  0  0  0  0  0  0
   -1.5003    0.9519    1.1040 H   0  0  0  0  0  0  0  0  0  0  0  0
   -0.4998    2.4066    1.2242 H   0  0  0  0  0  0  0  0  0  0  0  0
    0.3741    1.4272    3.3435 H   0  0  0  0  0  0  0  0  0  0  0  0
    0.8159    0.6874    0.5762 H   0  0  0  0  0  0  0  0  0  0  0  0
    1.6916    1.8956    1.6750 H   0  0  0  0  0  0  0  0  0  0  0  0
    4.0105    0.4297    2.8886 H   0  0  0  0  0  0  0  0  0  0  0  0
    2.4956    1.0618    3.5640 H   0  0  0  0  0  0  0  0  0  0  0  0
    1.8972   -1.3075    4.2876 H   0  0  0  0  0  0  0  0  0  0  0  0
    3.3616   -0.5803    4.9940 H   0  0  0  0  0  0  0  0  0  0  0  0
    5.4958   -3.0943    0.9857 H   0  0  0  0  0  0  0  0  0  0  0  0
    6.1953   -4.0613    2.2957 H   0  0  0  0  0  0  0  0  0  0  0  0
    3.5174   -5.0642    1.9795 H   0  0  0  0  0  0  0  0  0  0  0  0
    5.0717   -5.8372    1.4736 H   0  0  0  0  0  0  0  0  0  0  0  0
    3.9834   -5.7484   -1.9503 H   0  0  0  0  0  0  0  0  0  0  0  0
    4.3621   -3.9885   -2.0153 H   0  0  0  0  0  0  0  0  0  0  0  0
    1.9148   -4.2165   -0.7681 H   0  0  0  0  0  0  0  0  0  0  0  0
    2.4130   -6.3212   -2.6768 H   0  0  0  0  0  0  0  0  0  0  0  0
    1.0475   -6.1737   -1.4384 H   0  0  0  0  0  0  0  0  0  0  0  0
    0.4410   -4.1271   -3.2018 H   0  0  0  0  0  0  0  0  0  0  0  0
    1.1120   -5.3592   -4.2844 H   0  0  0  0  0  0  0  0  0  0  0  0
   -0.4751   -6.8992   -3.5013 H   0  0  0  0  0  0  0  0  0  0  0  0
   -1.1757   -4.1803   -4.3530 H   0  0  0  0  0  0  0  0  0  0  0  0
   -1.5422   -5.7795   -5.1092 H   0  0  0  0  0  0  0  0  0  0  0  0
   -5.0162   -5.0101   -3.8980 H   0  0  0  0  0  0  0  0  0  0  0  0
   -4.3437   -4.1058   -2.5307 H   0  0  0  0  0  0  0  0  0  0  0  0
   -5.7253   -6.1581   -1.9460 H   0  0  0  0  0  0  0  0  0  0  0  0
   -4.4009   -7.1789   -2.5325 H   0  0  0  0  0  0  0  0  0  0  0  0
   -1.1597   -6.4235    0.8866 H   0  0  0  0  0  0  0  0  0  0  0  0
   -2.2872   -5.5422    2.0615 H   0  0  0  0  0  0  0  0  0  0  0  0
   -1.0594   -4.3796   -0.4624 H   0  0  0  0  0  0  0  0  0  0  0  0
   -0.2511   -4.2328    1.1681 H   0  0  0  0  0  0  0  0  0  0  0  0
   -1.3285   -2.0675    2.5933 H   0  0  0  0  0  0  0  0  0  0  0  0
   -1.5256   -3.8187    2.8805 H   0  0  0  0  0  0  0  0  0  0  0  0
   -4.0031   -2.9664    2.3039 H   0  0  0  0  0  0  0  0  0  0  0  0
   -4.1406   -0.8215    2.8160 H   0  0  0  0  0  0  0  0  0  0  0  0
   -2.4408   -0.8616    3.3079 H   0  0  0  0  0  0  0  0  0  0  0  0
   -3.3182   -2.1815    5.4073 H   0  0  0  0  0  0  0  0  0  0  0  0
   -3.1917   -0.4145    5.4042 H   0  0  0  0  0  0  0  0  0  0  0  0
   -5.6306   -2.0983    5.1877 H   0  0  0  0  0  0  0  0  0  0  0  0
   -6.0034   -0.3664    3.4983 H   0  0  0  0  0  0  0  0  0  0  0  0
   -6.9051   -0.2168    5.0127 H   0  0  0  0  0  0  0  0  0  0  0  0
   -0.6226   -1.7444    0.6810 H   0  0  0  0  0  0  0  0  0  0  0  0
   -2.2953   -1.2185    0.4183 H   0  0  0  0  0  0  0  0  0  0  0  0
   -2.3011   -2.3306   -1.6969 H   0  0  0  0  0  0  0  0  0  0  0  0
   -0.3242   -0.5584   -1.1317 H   0  0  0  0  0  0  0  0  0  0  0  0
    0.5703   -1.9809   -1.8996 H   0  0  0  0  0  0  0  0  0  0  0  0
   -1.1291    0.1058   -3.1393 H   0  0  0  0  0  0  0  0  0  0  0  0
   -1.6824   -1.5523   -3.4563 H   0  0  0  0  0  0  0  0  0  0  0  0
   -0.0781   -1.5974   -4.9180 H   0  0  0  0  0  0  0  0  0  0  0  0
    0.2479    0.4606   -5.5403 H   0  0  0  0  0  0  0  0  0  0  0  0
    0.3116    1.0077   -3.8537 H   0  0  0  0  0  0  0  0  0  0  0  0
    3.9943   -0.5945   -5.2218 H   0  0  0  0  0  0  0  0  0  0  0  0
    4.1005    0.1981   -3.6377 H   0  0  0  0  0  0  0  0  0  0  0  0
    3.4894    2.2257   -5.6719 H   0  0  0  0  0  0  0  0  0  0  0  0
    4.7973    1.2121   -6.3048 H   0  0  0  0  0  0  0  0  0  0  0  0
    7.2913    3.6853   -2.1951 H   0  0  0  0  0  0  0  0  0  0  0  0
    6.0091    2.7950   -1.3554 H   0  0  0  0  0  0  0  0  0  0  0  0
    5.1260    5.2466   -2.8969 H   0  0  0  0  0  0  0  0  0  0  0  0
    6.1121    5.4643   -1.4387 H   0  0  0  0  0  0  0  0  0  0  0  0
    4.4929    4.4494    0.9783 H   0  0  0  0  0  0  0  0  0  0  0  0
    5.3408    5.8424    0.2855 H   0  0  0  0  0  0  0  0  0  0  0  0
    3.5557    7.1104    0.5371 H   0  0  0  0  0  0  0  0  0  0  0  0
    2.1033    4.8470    1.7477 H   0  0  0  0  0  0  0  0  0  0  0  0
    3.5590    5.5478    2.4692 H   0  0  0  0  0  0  0  0  0  0  0  0
    1.8456    6.7580    3.4877 H   0  0  0  0  0  0  0  0  0  0  0  0
    2.6632    7.8151    2.3282 H   0  0  0  0  0  0  0  0  0  0  0  0
    0.4499    8.2199    2.1138 H   0  0  0  0  0  0  0  0  0  0  0  0
    0.1334    5.3508    1.6291 H   0  0  0  0  0  0  0  0  0  0  0  0
   -0.9916    6.5495    0.9830 H   0  0  0  0  0  0  0  0  0  0  0  0
    2.2829    5.3013   -1.1918 H   0  0  0  0  0  0  0  0  0  0  0  0
    3.3613    5.5577   -2.6672 H   0  0  0  0  0  0  0  0  0  0  0  0
    1.8415    3.8292   -3.0647 H   0  0  0  0  0  0  0  0  0  0  0  0
    1.0284    2.5656   -1.4985 H   0  0  0  0  0  0  0  0  0  0  0  0
    2.0637    3.4206   -0.3352 H   0  0  0  0  0  0  0  0  0  0  0  0
    2.2603    0.6805   -1.3407 H   0  0  0  0  0  0  0  0  0  0  0  0
    3.7476    1.5720   -1.6984 H   0  0  0  0  0  0  0  0  0  0  0  0
    4.2112    1.8146    0.5151 H   0  0  0  0  0  0  0  0  0  0  0  0
    4.2004   -0.2715    1.1176 H   0  0  0  0  0  0  0  0  0  0  0  0
    2.9218   -0.6552   -0.0841 H   0  0  0  0  0  0  0  0  0  0  0  0
  1  2  2  0
  2  3  1  0
  3  4  1  0
  4  5  1  0
  5  6  2  0
  5  7  1  0
  7  8  1  0
  8  9  1  0
  9 10  1  0
 10 11  1  0
 11 12  1  0
 12 13  1  0
 13 14  1  0
 14 15  1  0
 15 16  1  0
 16 17  1  0
 17 18  1  0
 18 19  1  0
 19 20  1  0
 20 21  1  0
 21 22  1  0
 22 23  2  0
 22 24  1  0
 24 25  1  0
 25 26  1  0
 26 27  2  0
 26 28  1  0
 28 29  1  0
 29 30  1  0
 30 31  1  0
 31 32  1  0
 32 33  1  0
 33 34  1  0
 34 35  2  0
 34 36  1  0
 36 37  1  0
 37 38  1  0
 38 39  2  0
 38 40  1  0
 40 41  1  0
 41 42  1  0
 42 43  1  0
 43 44  1  0
 44 45  1  0
 45 46  1  0
 46 47  1  0
 47 48  1  0
 48 49  1  0
 43 50  1  0
 50 51  1  0
 51 52  1  0
 52 53  1  0
 53 54  1  0
 54 55  1  0
 55 56  1  0
 56 57  2  0
 56 58  1  0
 58 59  1  0
 59 60  1  0
 60 61  2  0
 60 62  1  0
 62 63  1  0
 63 64  1  0
 64 65  1  0
 65 66  1  0
 66 67  1  0
 67 68  1  0
 68 69  1  0
 69 70  1  0
 70 71  1  0
 65 72  1  0
 72 73  1  0
 73 74  1  0
 74 75  1  0
 75 76  1  0
 76 77  1  0
 49  2  1  0
 71 10  1  0
 77 18  1  0
  3 78  1  0
  3 79  1  0
  4 80  1  0
  4 81  1  0
  8 82  1  0
  8 83  1  0
  9 84  1  0
  9 85  1  0
 11 86  1  0
 11 87  1  0
 12 88  1  0
 12 89  1  0
 13 90  1  0
 14 91  1  0
 14 92  1  0
 15 93  1  0
 15 94  1  0
 16 95  1  0
 17 96  1  0
 17 97  1  0
 19 98  1  0
 19 99  1  0
 20100  1  0
 20101  1  0
 24102  1  0
 24103  1  0
 25104  1  0
 25105  1  0
 28106  1  0
 28107  1  0
 29108  1  0
 30109  1  0
 30110  1  0
 31111  1  0
 31112  1  0
 32113  1  0
 33114  1  0
 33115  1  0
 36116  1  0
 36117  1  0
 37118  1  0
 37119  1  0
 41120  1  0
 41121  1  0
 42122  1  0
 42123  1  0
 44124  1  0
 44125  1  0
 45126  1  0
 46127  1  0
 46128  1  0
 47129  1  0
 47130  1  0
 48131  1  0
 49132  1  0
 49133  1  0
 50134  1  0
 50135  1  0
 51136  1  0
 52137  1  0
 52138  1  0
 53139  1  0
 53140  1  0
 54141  1  0
 55142  1  0
 55143  1  0
 58144  1  0
 58145  1  0
 59146  1  0
 59147  1  0
 63148  1  0
 63149  1  0
 64150  1  0
 64151  1  0
 66152  1  0
 66153  1  0
 67154  1  0
 68155  1  0
 68156  1  0
 69157  1  0
 69158  1  0
 70159  1  0
 71160  1  0
 71161  1  0
 72162  1  0
 72163  1  0
 73164  1  0
 74165  1  0
 74166  1  0
 75167  1  0
 75168  1  0
 76169  1  0
 77170  1  0
 77171  1  0
M  END
