
     RDKit          3D

222234  0  0  0  0  0  0  0  0999 V2000
   -1.9547   -5.2655    3.1102 O   0  0  0  0  0  0  0  0  0  0  0  0
   -0.8060   -4.3784    2.8609 S   0  0  0  0  0  0  0  0  0  0  0  0
   -0.1271   -4.8610    1.6065 O   0  0  0  0  0  0  0  0  0  0  0  0
    0.3983   -4.4099    4.1496 C   0  0  0  0  0  0  0  0  0  0  0  0
   -0.1999   -4.3249    5.4929 N   0  0  0  0  0  0  0  0  0  0  0  0
   -0.8858   -4.4037    6.7992 C   0  0  0  0  0  0  0  0  0  0  0  0
   -2.0117   -3.6336    7.2469 C   0  0  0  0  0  0  0  0  0  0  0  0
   -1.7878   -2.7930    8.3466 C   0  0  0  0  0  0  0  0  0  0  0  0
   -0.4468   -2.8003    8.8300 C   0  0  0  0  0  0  0  0  0  0  0  0
   -0.2200   -4.1822    9.0916 C   0  0  0  0  0  0  0  0  0  0  0  0
   -0.4513   -5.0443    8.0095 C   0  0  0  0  0  0  0  0  0  0  0  0
    0.8112   -1.5125    8.7172 S   0  0  0  0  0  0  0  0  0  0  0  0
    2.1522   -1.9545    8.2838 O   0  0  0  0  0  0  0  0  0  0  0  0
    0.9355   -0.7036    9.9506 O   0  0  0  0  0  0  0  0  0  0  0  0
    0.5440   -0.3866    7.4226 N   0  0  0  0  0  0  0  0  0  0  0  0
    1.2722    0.8093    7.6836 C   0  0  0  0  0  0  0  0  0  0  0  0
    0.5576    2.1156    7.7334 C   0  0  0  0  0  0  0  0  0  0  0  0
   -0.8354    2.3983    7.8220 C   0  0  0  0  0  0  0  0  0  0  0  0
   -1.5208    2.6145    6.5928 C   0  0  0  0  0  0  0  0  0  0  0  0
   -0.8621    3.8257    6.2315 C   0  0  0  0  0  0  0  0  0  0  0  0
    0.5174    3.7071    5.8967 C   0  0  0  0  0  0  0  0  0  0  0  0
    0.9639    3.3735    7.2094 C   0  0  0  0  0  0  0  0  0  0  0  0
    1.1745    3.4399    4.5784 C   0  0  0  0  0  0  0  0  0  0  0  0
    1.7758    4.6462    4.0012 N   0  0  0  0  0  0  0  0  0  0  0  0
    3.3417    4.3439    3.3976 S   0  0  0  0  0  0  0  0  0  0  0  0
    4.2586    5.4088    3.9582 O   0  0  0  0  0  0  0  0  0  0  0  0
    3.8992    3.0234    3.7988 O   0  0  0  0  0  0  0  0  0  0  0  0
    3.3643    4.5753    1.6232 C   0  0  0  0  0  0  0  0  0  0  0  0
    4.7544    4.4408    1.1499 N   0  0  0  0  0  0  0  0  0  0  0  0
    6.1136    4.2907    0.5783 C   0  0  0  0  0  0  0  0  0  0  0  0
    6.7808    5.2058   -0.3041 C   0  0  0  0  0  0  0  0  0  0  0  0
    6.8452    4.8487   -1.6619 C   0  0  0  0  0  0  0  0  0  0  0  0
    6.2443    3.6007   -2.0027 C   0  0  0  0  0  0  0  0  0  0  0  0
    6.8733    2.6945   -1.0921 C   0  0  0  0  0  0  0  0  0  0  0  0
    6.7558    3.0474    0.2623 C   0  0  0  0  0  0  0  0  0  0  0  0
    4.7205    3.3932   -2.9508 S   0  0  0  0  0  0  0  0  0  0  0  0
    3.7182    4.4815   -2.8049 O   0  0  0  0  0  0  0  0  0  0  0  0
    5.0107    3.0781   -4.4011 O   0  0  0  0  0  0  0  0  0  0  0  0
    3.7438    2.1105   -2.4188 N   0  0  0  0  0  0  0  0  0  0  0  0
    2.6732    1.7837   -3.2641 C   0  0  0  0  0  0  0  0  0  0  0  0
    2.3192    0.2991   -3.3708 C   0  0  0  0  0  0  0  0  0  0  0  0
    2.9002   -0.8988   -2.8123 C   0  0  0  0  0  0  0  0  0  0  0  0
    3.9700   -1.4626   -3.5682 C   0  0  0  0  0  0  0  0  0  0  0  0
    3.8866   -0.7798   -4.8330 C   0  0  0  0  0  0  0  0  0  0  0  0
    2.5970   -1.0310   -5.4088 C   0  0  0  0  0  0  0  0  0  0  0  0
    1.7255   -0.4302   -4.4532 C   0  0  0  0  0  0  0  0  0  0  0  0
    2.2918   -1.9731   -6.5132 C   0  0  0  0  0  0  0  0  0  0  0  0
    1.1834   -2.8367   -6.5151 N   0  0  0  0  0  0  0  0  0  0  0  0
    1.3842   -4.4068   -5.9337 S   0  0  0  0  0  0  0  0  0  0  0  0
    2.8384   -4.6896   -5.8331 O   0  0  0  0  0  0  0  0  0  0  0  0
    0.8936   -4.1636   -4.5532 O   0  0  0  0  0  0  0  0  0  0  0  0
    0.4984   -5.7040   -6.8382 C   0  0  0  0  0  0  0  0  0  0  0  0
   -0.3648   -6.7113   -6.3036 C   0  0  0  0  0  0  0  0  0  0  0  0
   -1.7291   -6.5035   -6.5615 C   0  0  0  0  0  0  0  0  0  0  0  0
   -2.0940   -5.3809   -7.3779 C   0  0  0  0  0  0  0  0  0  0  0  0
   -1.2103   -5.5343   -8.5003 C   0  0  0  0  0  0  0  0  0  0  0  0
    0.1569   -5.7067   -8.2244 C   0  0  0  0  0  0  0  0  0  0  0  0
   -2.6783   -4.1036   -6.8994 N   0  0  0  0  0  0  0  0  0  0  0  0
   -3.1609   -2.7960   -6.4156 C   0  0  0  0  0  0  0  0  0  0  0  0
   -4.2309   -2.0752   -7.6539 S   0  0  0  0  0  0  0  0  0  0  0  0
   -3.9613   -2.7449   -8.9742 O   0  0  0  0  0  0  0  0  0  0  0  0
   -5.6791   -2.2932   -7.3211 O   0  0  0  0  0  0  0  0  0  0  0  0
   -3.9381   -0.3976   -7.8578 N   0  0  0  0  0  0  0  0  0  0  0  0
   -3.9153    0.3071   -6.5725 C   0  0  0  0  0  0  0  0  0  0  0  0
   -5.0999    1.2047   -6.3895 C   0  0  0  0  0  0  0  0  0  0  0  0
   -5.1848    2.6274   -6.4341 C   0  0  0  0  0  0  0  0  0  0  0  0
   -4.9728    3.3182   -5.2020 C   0  0  0  0  0  0  0  0  0  0  0  0
   -6.1544    2.8597   -4.5460 C   0  0  0  0  0  0  0  0  0  0  0  0
   -6.2373    1.4622   -4.2666 C   0  0  0  0  0  0  0  0  0  0  0  0
   -6.2817    1.0035   -5.6189 C   0  0  0  0  0  0  0  0  0  0  0  0
   -5.8124    0.7377   -3.0264 C   0  0  0  0  0  0  0  0  0  0  0  0
   -6.9393    0.4455   -2.1363 N   0  0  0  0  0  0  0  0  0  0  0  0
   -6.2667    0.2100   -0.5889 S   0  0  0  0  0  0  0  0  0  0  0  0
   -6.6064    1.4158    0.2160 O   0  0  0  0  0  0  0  0  0  0  0  0
   -4.7683    0.4193   -0.5636 O   0  0  0  0  0  0  0  0  0  0  0  0
   -6.7890   -1.3636    0.1484 C   0  0  0  0  0  0  0  0  0  0  0  0
   -7.7909   -1.5797    1.1472 C   0  0  0  0  0  0  0  0  0  0  0  0
   -7.2853   -1.9024    2.4177 C   0  0  0  0  0  0  0  0  0  0  0  0
   -5.8627   -2.0419    2.5559 C   0  0  0  0  0  0  0  0  0  0  0  0
   -5.5540   -2.9260    1.4662 C   0  0  0  0  0  0  0  0  0  0  0  0
   -6.0453   -2.5834    0.1941 C   0  0  0  0  0  0  0  0  0  0  0  0
   -4.9473   -1.0498    3.1692 N   0  0  0  0  0  0  0  0  0  0  0  0
   -4.0410   -0.0062    3.6832 C   0  0  0  0  0  0  0  0  0  0  0  0
   -4.4136    0.3213    5.3937 S   0  0  0  0  0  0  0  0  0  0  0  0
   -5.9095    0.5271    5.4858 O   0  0  0  0  0  0  0  0  0  0  0  0
   -4.0870   -0.8268    6.2814 O   0  0  0  0  0  0  0  0  0  0  0  0
   -3.7143    1.7849    5.8717 N   0  0  0  0  0  0  0  0  0  0  0  0
   -2.2631    1.6456    5.7257 C   0  0  0  0  0  0  0  0  0  0  0  0
   -3.7100    3.8372   -4.5885 C   0  0  0  0  0  0  0  0  0  0  0  0
   -3.6447    5.3037   -4.5702 N   0  0  0  0  0  0  0  0  0  0  0  0
   -3.1372    5.8016   -3.0210 S   0  0  0  0  0  0  0  0  0  0  0  0
   -3.6395    4.7658   -2.0392 O   0  0  0  0  0  0  0  0  0  0  0  0
   -4.0040    6.9065   -2.5816 O   0  0  0  0  0  0  0  0  0  0  0  0
   -1.3552    6.1127   -2.9173 C   0  0  0  0  0  0  0  0  0  0  0  0
   -0.6860    7.3648   -2.7233 C   0  0  0  0  0  0  0  0  0  0  0  0
   -0.1478    7.5361   -1.4360 C   0  0  0  0  0  0  0  0  0  0  0  0
   -0.2625    6.4402   -0.5137 C   0  0  0  0  0  0  0  0  0  0  0  0
    0.2486    5.3589   -1.3098 C   0  0  0  0  0  0  0  0  0  0  0  0
   -0.3344    5.1733   -2.5765 C   0  0  0  0  0  0  0  0  0  0  0  0
   -1.2408    6.3252    0.5983 N   0  0  0  0  0  0  0  0  0  0  0  0
   -2.3082    6.2087    1.6061 C   0  0  0  0  0  0  0  0  0  0  0  0
   -2.7508    4.5413    1.9423 S   0  0  0  0  0  0  0  0  0  0  0  0
   -4.0600    4.1833    1.2699 O   0  0  0  0  0  0  0  0  0  0  0  0
   -3.0554    4.4544    3.4224 O   0  0  0  0  0  0  0  0  0  0  0  0
   -1.5197    3.4101    1.5992 N   0  0  0  0  0  0  0  0  0  0  0  0
   -2.0941    2.4055    0.7692 C   0  0  0  0  0  0  0  0  0  0  0  0
   -1.1916    1.2958    0.2526 C   0  0  0  0  0  0  0  0  0  0  0  0
   -1.2654   -0.1368    0.3858 C   0  0  0  0  0  0  0  0  0  0  0  0
   -0.6129   -0.6975    1.5246 C   0  0  0  0  0  0  0  0  0  0  0  0
    0.0789    0.4381    2.0790 C   0  0  0  0  0  0  0  0  0  0  0  0
    1.0524    0.8692    1.1131 C   0  0  0  0  0  0  0  0  0  0  0  0
    0.2284    1.2747    0.0181 C   0  0  0  0  0  0  0  0  0  0  0  0
    2.5025    0.5831    1.1120 C   0  0  0  0  0  0  0  0  0  0  0  0
    2.9553   -0.5448    1.9354 N   0  0  0  0  0  0  0  0  0  0  0  0
    4.5234   -1.0491    1.6246 S   0  0  0  0  0  0  0  0  0  0  0  0
    5.0066   -0.4761    0.3143 O   0  0  0  0  0  0  0  0  0  0  0  0
    5.5045   -0.6147    2.6781 O   0  0  0  0  0  0  0  0  0  0  0  0
    4.5206   -2.8337    1.5076 C   0  0  0  0  0  0  0  0  0  0  0  0
    5.8349   -3.3195    1.0491 N   0  0  0  0  0  0  0  0  0  0  0  0
    7.1052   -3.8427    0.4882 C   0  0  0  0  0  0  0  0  0  0  0  0
    7.8364   -3.2901   -0.6179 C   0  0  0  0  0  0  0  0  0  0  0  0
    7.7091   -3.9399   -1.8585 C   0  0  0  0  0  0  0  0  0  0  0  0
    6.8391   -5.0708   -1.8588 C   0  0  0  0  0  0  0  0  0  0  0  0
    7.4021   -5.8728   -0.8153 C   0  0  0  0  0  0  0  0  0  0  0  0
    7.4952   -5.2242    0.4267 C   0  0  0  0  0  0  0  0  0  0  0  0
    5.2072   -5.1851   -2.6338 S   0  0  0  0  0  0  0  0  0  0  0  0
    5.3024   -5.8889   -3.9711 O   0  0  0  0  0  0  0  0  0  0  0  0
    4.2624   -6.0931   -1.8711 O   0  0  0  0  0  0  0  0  0  0  0  0
    4.2613   -3.8075   -2.6292 N   0  0  0  0  0  0  0  0  0  0  0  0
    4.7767   -2.6534   -3.2978 C   0  0  0  0  0  0  0  0  0  0  0  0
   -0.3529   -2.1373    1.7959 C   0  0  0  0  0  0  0  0  0  0  0  0
   -1.3738   -2.7784    2.6338 N   0  0  0  0  0  0  0  0  0  0  0  0
    0.9810   -5.3297    4.0084 H   0  0  0  0  0  0  0  0  0  0  0  0
    1.0766   -3.5662    3.9998 H   0  0  0  0  0  0  0  0  0  0  0  0
    0.4299   -3.5418    5.7132 H   0  0  0  0  0  0  0  0  0  0  0  0
   -3.0404   -3.6938    6.8815 H   0  0  0  0  0  0  0  0  0  0  0  0
   -2.6597   -2.2991    8.7820 H   0  0  0  0  0  0  0  0  0  0  0  0
    0.0093   -4.6660   10.0432 H   0  0  0  0  0  0  0  0  0  0  0  0
   -0.3578   -6.1196    8.1856 H   0  0  0  0  0  0  0  0  0  0  0  0
   -0.4698   -0.1626    7.4926 H   0  0  0  0  0  0  0  0  0  0  0  0
    2.0377    0.6611    6.8789 H   0  0  0  0  0  0  0  0  0  0  0  0
    1.8767    0.6088    8.6093 H   0  0  0  0  0  0  0  0  0  0  0  0
   -1.3719    2.3553    8.7928 H   0  0  0  0  0  0  0  0  0  0  0  0
   -1.4184    4.7742    6.0793 H   0  0  0  0  0  0  0  0  0  0  0  0
    1.6748    4.0352    7.7523 H   0  0  0  0  0  0  0  0  0  0  0  0
    1.9674    2.6804    4.5285 H   0  0  0  0  0  0  0  0  0  0  0  0
    0.5601    3.0633    3.7501 H   0  0  0  0  0  0  0  0  0  0  0  0
    1.7497    5.3858    4.7479 H   0  0  0  0  0  0  0  0  0  0  0  0
    2.9844    5.5992    1.4685 H   0  0  0  0  0  0  0  0  0  0  0  0
    2.6799    3.9013    1.1012 H   0  0  0  0  0  0  0  0  0  0  0  0
    5.0495    4.7236    2.0970 H   0  0  0  0  0  0  0  0  0  0  0  0
    7.3330    6.1108   -0.0355 H   0  0  0  0  0  0  0  0  0  0  0  0
    7.4656    5.4853   -2.3030 H   0  0  0  0  0  0  0  0  0  0  0  0
    7.5096    1.8413   -1.3545 H   0  0  0  0  0  0  0  0  0  0  0  0
    7.2886    2.3734    0.9375 H   0  0  0  0  0  0  0  0  0  0  0  0
    4.3050    1.2795   -2.1497 H   0  0  0  0  0  0  0  0  0  0  0  0
    2.9534    2.2859   -4.1923 H   0  0  0  0  0  0  0  0  0  0  0  0
    1.8377    2.3884   -2.8254 H   0  0  0  0  0  0  0  0  0  0  0  0
    2.6643   -1.1142   -1.7497 H   0  0  0  0  0  0  0  0  0  0  0  0
    4.6521   -0.1069   -5.2580 H   0  0  0  0  0  0  0  0  0  0  0  0
    0.6306   -0.3075   -4.6102 H   0  0  0  0  0  0  0  0  0  0  0  0
    2.2555   -1.4932   -7.5343 H   0  0  0  0  0  0  0  0  0  0  0  0
    3.0418   -2.7845   -6.7172 H   0  0  0  0  0  0  0  0  0  0  0  0
    0.5000   -2.7342   -7.2833 H   0  0  0  0  0  0  0  0  0  0  0  0
   -0.0610   -7.6482   -5.8235 H   0  0  0  0  0  0  0  0  0  0  0  0
   -2.3765   -7.3010   -6.1887 H   0  0  0  0  0  0  0  0  0  0  0  0
   -1.4815   -5.6283   -9.5553 H   0  0  0  0  0  0  0  0  0  0  0  0
    0.8131   -5.9367   -9.0702 H   0  0  0  0  0  0  0  0  0  0  0  0
   -3.6395   -4.2753   -7.2307 H   0  0  0  0  0  0  0  0  0  0  0  0
   -2.3437   -2.1322   -6.1217 H   0  0  0  0  0  0  0  0  0  0  0  0
   -3.8020   -2.9442   -5.5354 H   0  0  0  0  0  0  0  0  0  0  0  0
   -4.7122   -0.0060   -8.4198 H   0  0  0  0  0  0  0  0  0  0  0  0
   -3.7395   -0.4933   -5.8370 H   0  0  0  0  0  0  0  0  0  0  0  0
   -2.9104    0.7499   -6.5527 H   0  0  0  0  0  0  0  0  0  0  0  0
   -5.2680    3.1767   -7.3940 H   0  0  0  0  0  0  0  0  0  0  0  0
   -6.9300    3.5688   -4.1877 H   0  0  0  0  0  0  0  0  0  0  0  0
   -7.1387    0.4102   -5.9976 H   0  0  0  0  0  0  0  0  0  0  0  0
   -5.0107    1.2082   -2.4016 H   0  0  0  0  0  0  0  0  0  0  0  0
   -5.3343   -0.2454   -3.1247 H   0  0  0  0  0  0  0  0  0  0  0  0
   -7.4658   -0.3626   -2.5115 H   0  0  0  0  0  0  0  0  0  0  0  0
   -8.8754   -1.6103    0.9966 H   0  0  0  0  0  0  0  0  0  0  0  0
   -8.0558   -2.1181    3.1619 H   0  0  0  0  0  0  0  0  0  0  0  0
   -5.0433   -3.8910    1.5116 H   0  0  0  0  0  0  0  0  0  0  0  0
   -5.9118   -3.3081   -0.6159 H   0  0  0  0  0  0  0  0  0  0  0  0
   -4.7705   -1.5658    4.0433 H   0  0  0  0  0  0  0  0  0  0  0  0
   -4.1254    0.9312    3.1282 H   0  0  0  0  0  0  0  0  0  0  0  0
   -3.0020   -0.3623    3.6756 H   0  0  0  0  0  0  0  0  0  0  0  0
   -3.9694    1.9895    6.8626 H   0  0  0  0  0  0  0  0  0  0  0  0
   -2.0541    0.5662    5.8586 H   0  0  0  0  0  0  0  0  0  0  0  0
   -2.1151    1.6814    4.6391 H   0  0  0  0  0  0  0  0  0  0  0  0
   -2.7521    3.5846   -5.0747 H   0  0  0  0  0  0  0  0  0  0  0  0
   -3.4297    3.4594   -3.5720 H   0  0  0  0  0  0  0  0  0  0  0  0
   -4.5508    5.7241   -4.8354 H   0  0  0  0  0  0  0  0  0  0  0  0
   -0.4972    8.1277   -3.4861 H   0  0  0  0  0  0  0  0  0  0  0  0
    0.3816    8.4806   -1.2936 H   0  0  0  0  0  0  0  0  0  0  0  0
    1.0774    4.6869   -1.0723 H   0  0  0  0  0  0  0  0  0  0  0  0
    0.1116    4.4080   -3.2191 H   0  0  0  0  0  0  0  0  0  0  0  0
   -0.5640    6.4664    1.3633 H   0  0  0  0  0  0  0  0  0  0  0  0
   -1.9928    6.7405    2.5157 H   0  0  0  0  0  0  0  0  0  0  0  0
   -3.2423    6.7144    1.2754 H   0  0  0  0  0  0  0  0  0  0  0  0
   -0.6302    3.8148    1.2723 H   0  0  0  0  0  0  0  0  0  0  0  0
   -2.6489    2.9280   -0.0511 H   0  0  0  0  0  0  0  0  0  0  0  0
   -2.8940    2.1055    1.4520 H   0  0  0  0  0  0  0  0  0  0  0  0
   -2.0070   -0.6660   -0.2507 H   0  0  0  0  0  0  0  0  0  0  0  0
   -0.1050    0.8794    3.0680 H   0  0  0  0  0  0  0  0  0  0  0  0
    0.5909    1.8206   -0.8807 H   0  0  0  0  0  0  0  0  0  0  0  0
    3.0255    0.2167    0.2278 H   0  0  0  0  0  0  0  0  0  0  0  0
    3.1517    1.4058    1.5162 H   0  0  0  0  0  0  0  0  0  0  0  0
    2.8735   -0.2226    2.9223 H   0  0  0  0  0  0  0  0  0  0  0  0
    3.7090   -3.1168    0.8320 H   0  0  0  0  0  0  0  0  0  0  0  0
    4.3757   -3.1762    2.5595 H   0  0  0  0  0  0  0  0  0  0  0  0
    6.2321   -2.9232    1.9117 H   0  0  0  0  0  0  0  0  0  0  0  0
    8.5491   -2.4613   -0.6011 H   0  0  0  0  0  0  0  0  0  0  0  0
    8.3200   -3.5648   -2.6855 H   0  0  0  0  0  0  0  0  0  0  0  0
    7.8553   -6.8649   -0.9135 H   0  0  0  0  0  0  0  0  0  0  0  0
    7.9593   -5.8245    1.2132 H   0  0  0  0  0  0  0  0  0  0  0  0
    3.3656   -4.0332   -3.0712 H   0  0  0  0  0  0  0  0  0  0  0  0
    5.1357   -3.2672   -4.1686 H   0  0  0  0  0  0  0  0  0  0  0  0
    5.7615   -2.4603   -2.7867 H   0  0  0  0  0  0  0  0  0  0  0  0
    0.5356   -2.3783    2.4426 H   0  0  0  0  0  0  0  0  0  0  0  0
    0.0065   -2.8111    0.9865 H   0  0  0  0  0  0  0  0  0  0  0  0
   -1.3258   -2.2743    3.5531 H   0  0  0  0  0  0  0  0  0  0  0  0
  1  2  2  0
  2  3  2  0
  2  4  1  0
  4  5  1  0
  5  6  1  0
  6  7  2  0
  7  8  1  0
  8  9  2  0
  9 10  1  0
 10 11  2  0
  9 12  1  0
 12 13  2  0
 12 14  2  0
 12 15  1  0
 15 16  1  0
 16 17  1  0
 17 18  2  0
 18 19  1  0
 19 20  2  0
 20 21  1  0
 21 22  2  0
 21 23  1  0
 23 24  1  0
 24 25  1  0
 25 26  2  0
 25 27  2  0
 25 28  1  0
 28 29  1  0
 29 30  1  0
 30 31  2  0
 31 32  1  0
 32 33  2  0
 33 34  1  0
 34 35  2  0
 33 36  1  0
 36 37  2  0
 36 38  2  0
 36 39  1  0
 39 40  1  0
 40 41  1  0
 41 42  2  0
 42 43  1  0
 43 44  2  0
 44 45  1  0
 45 46  2  0
 45 47  1  0
 47 48  1  0
 48 49  1  0
 49 50  2  0
 49 51  2  0
 49 52  1  0
 52 53  1  0
 53 54  2  0
 54 55  1  0
 55 56  2  0
 56 57  1  0
 55 58  1  0
 58 59  1  0
 59 60  1  0
 60 61  2  0
 60 62  2  0
 60 63  1  0
 63 64  1  0
 64 65  1  0
 65 66  1  0
 66 67  2  0
 67 68  1  0
 68 69  2  0
 69 70  1  0
 69 71  1  0
 71 72  1  0
 72 73  1  0
 73 74  2  0
 73 75  2  0
 73 76  1  0
 76 77  2  0
 77 78  1  0
 78 79  2  0
 79 80  1  0
 80 81  2  0
 79 82  1  0
 82 83  1  0
 83 84  1  0
 84 85  2  0
 84 86  2  0
 84 87  1  0
 87 88  1  0
 67 89  1  0
 89 90  1  0
 90 91  1  0
 91 92  2  0
 91 93  2  0
 91 94  1  0
 94 95  2  0
 95 96  1  0
 96 97  2  0
 97 98  1  0
 98 99  2  0
 97100  1  0
100101  1  0
101102  1  0
102103  2  0
102104  2  0
102105  1  0
105106  1  0
106107  1  0
107108  2  0
108109  1  0
109110  2  0
110111  1  0
111112  2  0
111113  1  0
113114  1  0
114115  1  0
115116  2  0
115117  2  0
115118  1  0
118119  1  0
119120  1  0
120121  2  0
121122  1  0
122123  2  0
123124  1  0
124125  2  0
123126  1  0
126127  2  0
126128  2  0
126129  1  0
129130  1  0
109131  1  0
131132  1  0
132  2  1  0
 11  6  1  0
 22 17  1  0
 35 30  1  0
 46 41  1  0
 57 52  2  0
 70 65  2  0
 81 76  1  0
 99 94  1  0
112107  1  0
125120  1  0
 88 19  1  0
130 43  1  0
  4133  1  0
  4134  1  0
  5135  1  0
  7136  1  0
  8137  1  0
 10138  1  0
 11139  1  0
 15140  1  0
 16141  1  0
 16142  1  0
 18143  1  0
 20144  1  0
 22145  1  0
 23146  1  0
 23147  1  0
 24148  1  0
 28149  1  0
 28150  1  0
 29151  1  0
 31152  1  0
 32153  1  0
 34154  1  0
 35155  1  0
 39156  1  0
 40157  1  0
 40158  1  0
 42159  1  0
 44160  1  0
 46161  1  0
 47162  1  0
 47163  1  0
 48164  1  0
 53165  1  0
 54166  1  0
 56167  1  0
 57168  1  0
 58169  1  0
 59170  1  0
 59171  1  0
 63172  1  0
 64173  1  0
 64174  1  0
 66175  1  0
 68176  1  0
 70177  1  0
 71178  1  0
 71179  1  0
 72180  1  0
 77181  1  0
 78182  1  0
 80183  1  0
 81184  1  0
 82185  1  0
 83186  1  0
 83187  1  0
 87188  1  0
 88189  1  0
 88190  1  0
 89191  1  0
 89192  1  0
 90193  1  0
 95194  1  0
 96195  1  0
 98196  1  0
 99197  1  0
100198  1  0
101199  1  0
101200  1  0
105201  1  0
106202  1  0
106203  1  0
108204  1  0
110205  1  0
112206  1  0
113207  1  0
113208  1  0
114209  1  0
118210  1  0
118211  1  0
119212  1  0
121213  1  0
122214  1  0
124215  1  0
125216  1  0
129217  1  0
130218  1  0
130219  1  0
131220  1  0
131221  1  0
132222  1  0
M  END
