
     RDKit          3D

192204  0  0  0  0  0  0  0  0999 V2000
   -8.5184   -2.5123   -1.2383 C   0  0  0  0  0  0  0  0  0  0  0  0
   -7.5506   -3.0769   -0.4170 C   0  0  0  0  0  0  0  0  0  0  0  0
   -6.4877   -2.2681   -0.0898 C   0  0  0  0  0  0  0  0  0  0  0  0
   -6.1079   -1.3169   -1.0299 C   0  0  0  0  0  0  0  0  0  0  0  0
   -7.1470   -0.5570   -1.5543 C   0  0  0  0  0  0  0  0  0  0  0  0
   -8.3260   -1.2528   -1.7913 C   0  0  0  0  0  0  0  0  0  0  0  0
   -4.8252   -0.6183   -0.7413 C   0  0  0  0  0  0  0  0  0  0  0  0
   -4.2027   -0.0745   -1.9937 C   0  0  0  0  0  0  0  0  0  0  0  0
   -4.0601    1.1668   -1.5924 N   0  0  0  0  0  0  0  0  0  0  0  0
   -3.6430    2.4581   -1.1753 N   0  0  0  0  0  0  0  0  0  0  0  0
   -2.8720    3.5718   -0.5730 C   0  0  0  0  0  0  0  0  0  0  0  0
   -2.1863    3.1956    0.6538 C   0  0  0  0  0  0  0  0  0  0  0  0
   -0.8553    2.7373    0.8369 C   0  0  0  0  0  0  0  0  0  0  0  0
    0.1231    3.7561    0.9473 C   0  0  0  0  0  0  0  0  0  0  0  0
   -0.2420    4.0794    2.2772 C   0  0  0  0  0  0  0  0  0  0  0  0
   -1.5262    4.6516    2.4127 C   0  0  0  0  0  0  0  0  0  0  0  0
   -2.3611    3.5889    2.0024 C   0  0  0  0  0  0  0  0  0  0  0  0
   -1.8432    5.9966    2.8448 C   0  0  0  0  0  0  0  0  0  0  0  0
   -1.9783    6.1016    4.3422 N   0  0  0  0  0  0  0  0  0  0  0  0
   -1.7515    5.3518    5.5491 N   0  0  0  0  0  0  0  0  0  0  0  0
   -1.6381    4.2669    6.2979 C   0  0  0  0  0  0  0  0  0  0  0  0
   -0.5107    4.6678    7.1306 C   0  0  0  0  0  0  0  0  0  0  0  0
   -0.8895    4.5379    8.5537 C   0  0  0  0  0  0  0  0  0  0  0  0
   -2.2077    4.3956    8.9659 C   0  0  0  0  0  0  0  0  0  0  0  0
   -2.4748    3.8420   10.2084 C   0  0  0  0  0  0  0  0  0  0  0  0
   -1.4280    3.5227   11.0532 C   0  0  0  0  0  0  0  0  0  0  0  0
   -0.2228    4.1780   10.8363 C   0  0  0  0  0  0  0  0  0  0  0  0
    0.0457    4.6601    9.5698 C   0  0  0  0  0  0  0  0  0  0  0  0
   -1.4728    2.8441    6.5116 N   0  0  0  0  0  0  0  0  0  0  0  0
   -1.6808    1.4273    6.3431 C   0  0  0  0  0  0  0  0  0  0  0  0
   -0.5418    0.7128    5.6264 C   0  0  0  0  0  0  0  0  0  0  0  0
    0.0559   -0.5687    5.9033 C   0  0  0  0  0  0  0  0  0  0  0  0
   -0.6854   -1.6924    5.4334 C   0  0  0  0  0  0  0  0  0  0  0  0
   -1.7211   -1.0920    4.6430 C   0  0  0  0  0  0  0  0  0  0  0  0
   -1.0259   -0.4460    3.5579 C   0  0  0  0  0  0  0  0  0  0  0  0
   -0.2937    0.5859    4.2147 C   0  0  0  0  0  0  0  0  0  0  0  0
   -0.9222   -0.9588    2.2229 C   0  0  0  0  0  0  0  0  0  0  0  0
    0.3532   -1.2267    1.5612 N   0  0  0  0  0  0  0  0  0  0  0  0
    1.5829   -1.5862    0.9117 C   0  0  0  0  0  0  0  0  0  0  0  0
    1.8631   -0.4502    0.0980 C   0  0  0  0  0  0  0  0  0  0  0  0
    1.3238   -0.3184   -1.2649 C   0  0  0  0  0  0  0  0  0  0  0  0
    2.0566   -0.3796   -2.4462 C   0  0  0  0  0  0  0  0  0  0  0  0
    1.7283    0.3377   -3.5919 C   0  0  0  0  0  0  0  0  0  0  0  0
    0.5705    1.0507   -3.6304 C   0  0  0  0  0  0  0  0  0  0  0  0
   -0.2994    0.9603   -2.5871 C   0  0  0  0  0  0  0  0  0  0  0  0
    0.0843    0.2209   -1.5187 C   0  0  0  0  0  0  0  0  0  0  0  0
    2.7730   -2.0995    1.1073 N   0  0  0  0  0  0  0  0  0  0  0  0
    3.9405   -2.7686    1.5857 N   0  0  0  0  0  0  0  0  0  0  0  0
    5.3695   -3.0258    1.2754 C   0  0  0  0  0  0  0  0  0  0  0  0
    5.7456   -3.0816   -0.1328 C   0  0  0  0  0  0  0  0  0  0  0  0
    5.1221   -2.2251   -1.1120 C   0  0  0  0  0  0  0  0  0  0  0  0
    5.9628   -1.0802   -1.3327 C   0  0  0  0  0  0  0  0  0  0  0  0
    7.0501   -1.7479   -1.9837 C   0  0  0  0  0  0  0  0  0  0  0  0
    7.0226   -3.1713   -2.0774 C   0  0  0  0  0  0  0  0  0  0  0  0
    7.0312   -3.3853   -0.6508 C   0  0  0  0  0  0  0  0  0  0  0  0
    6.6021   -4.0643   -3.2183 C   0  0  0  0  0  0  0  0  0  0  0  0
    5.3280   -3.8508   -3.8433 N   0  0  0  0  0  0  0  0  0  0  0  0
    3.9954   -3.9849   -4.3841 C   0  0  0  0  0  0  0  0  0  0  0  0
    4.4609   -4.0435   -5.8114 C   0  0  0  0  0  0  0  0  0  0  0  0
    5.1943   -2.8347   -6.2243 C   0  0  0  0  0  0  0  0  0  0  0  0
    6.0923   -3.0134   -7.2739 C   0  0  0  0  0  0  0  0  0  0  0  0
    6.8950   -1.9478   -7.6564 C   0  0  0  0  0  0  0  0  0  0  0  0
    6.3935   -0.6885   -7.3514 C   0  0  0  0  0  0  0  0  0  0  0  0
    5.1341   -0.5423   -6.7832 C   0  0  0  0  0  0  0  0  0  0  0  0
    4.4601   -1.6553   -6.2959 C   0  0  0  0  0  0  0  0  0  0  0  0
    2.7839   -4.4601   -4.5874 N   0  0  0  0  0  0  0  0  0  0  0  0
    1.4670   -5.0109   -4.5467 N   0  0  0  0  0  0  0  0  0  0  0  0
    0.1338   -5.1194   -3.8767 C   0  0  0  0  0  0  0  0  0  0  0  0
   -0.0965   -4.0554   -2.9310 C   0  0  0  0  0  0  0  0  0  0  0  0
    0.0183   -4.0455   -1.5233 C   0  0  0  0  0  0  0  0  0  0  0  0
   -1.2241   -4.3027   -0.9006 C   0  0  0  0  0  0  0  0  0  0  0  0
   -1.7029   -2.9922   -1.1213 C   0  0  0  0  0  0  0  0  0  0  0  0
   -2.0698   -2.7122   -2.4624 C   0  0  0  0  0  0  0  0  0  0  0  0
   -0.8223   -2.8559   -3.1218 C   0  0  0  0  0  0  0  0  0  0  0  0
   -3.4148   -2.6537   -2.9616 C   0  0  0  0  0  0  0  0  0  0  0  0
   -4.0995   -1.3382   -2.7080 N   0  0  0  0  0  0  0  0  0  0  0  0
   -1.9618   -5.5269   -0.5552 C   0  0  0  0  0  0  0  0  0  0  0  0
   -1.9681   -5.7820    0.9006 N   0  0  0  0  0  0  0  0  0  0  0  0
   -1.8131   -5.3787    2.2535 N   0  0  0  0  0  0  0  0  0  0  0  0
   -1.5380   -4.7604    3.3725 C   0  0  0  0  0  0  0  0  0  0  0  0
   -2.9286   -4.5744    3.8278 C   0  0  0  0  0  0  0  0  0  0  0  0
   -3.5559   -5.9309    3.8924 C   0  0  0  0  0  0  0  0  0  0  0  0
   -4.9058   -6.1041    3.6171 C   0  0  0  0  0  0  0  0  0  0  0  0
   -5.4910   -7.3577    3.7297 C   0  0  0  0  0  0  0  0  0  0  0  0
   -4.7413   -8.4294    4.1574 C   0  0  0  0  0  0  0  0  0  0  0  0
   -3.3663   -8.3172    4.3026 C   0  0  0  0  0  0  0  0  0  0  0  0
   -2.8309   -7.0593    4.2036 C   0  0  0  0  0  0  0  0  0  0  0  0
   -0.8692   -3.9745    4.3759 N   0  0  0  0  0  0  0  0  0  0  0  0
   -0.1781   -3.0618    5.3029 C   0  0  0  0  0  0  0  0  0  0  0  0
    5.9897    0.1695   -0.5636 C   0  0  0  0  0  0  0  0  0  0  0  0
    5.2080    1.2888   -1.1119 N   0  0  0  0  0  0  0  0  0  0  0  0
    4.2315    2.3492   -1.1763 C   0  0  0  0  0  0  0  0  0  0  0  0
    5.1271    3.4535   -1.5825 C   0  0  0  0  0  0  0  0  0  0  0  0
    4.5485    4.2700   -2.6793 C   0  0  0  0  0  0  0  0  0  0  0  0
    5.0176    4.0350   -3.9662 C   0  0  0  0  0  0  0  0  0  0  0  0
    4.3407    4.6530   -5.0053 C   0  0  0  0  0  0  0  0  0  0  0  0
    3.3332    5.5620   -4.7351 C   0  0  0  0  0  0  0  0  0  0  0  0
    3.2334    6.0898   -3.4650 C   0  0  0  0  0  0  0  0  0  0  0  0
    4.0321    5.5432   -2.4707 C   0  0  0  0  0  0  0  0  0  0  0  0
    3.1871    3.1267   -1.0120 N   0  0  0  0  0  0  0  0  0  0  0  0
    2.0136    3.8206   -0.6332 N   0  0  0  0  0  0  0  0  0  0  0  0
    0.8151    4.4900   -0.0975 C   0  0  0  0  0  0  0  0  0  0  0  0
   -9.4157   -3.0994   -1.4252 H   0  0  0  0  0  0  0  0  0  0  0  0
   -7.6618   -4.0732    0.0094 H   0  0  0  0  0  0  0  0  0  0  0  0
   -5.7364   -2.7032    0.5708 H   0  0  0  0  0  0  0  0  0  0  0  0
   -6.9917    0.3531   -2.1008 H   0  0  0  0  0  0  0  0  0  0  0  0
   -9.1927   -0.8001   -2.2561 H   0  0  0  0  0  0  0  0  0  0  0  0
   -4.1347   -1.2541   -0.1711 H   0  0  0  0  0  0  0  0  0  0  0  0
   -5.0717    0.2459   -0.1130 H   0  0  0  0  0  0  0  0  0  0  0  0
   -4.5573    2.9021   -1.0443 H   0  0  0  0  0  0  0  0  0  0  0  0
   -3.5710    4.4480   -0.5665 H   0  0  0  0  0  0  0  0  0  0  0  0
   -2.2873    3.9120   -1.4691 H   0  0  0  0  0  0  0  0  0  0  0  0
   -0.5895    1.6653    0.7630 H   0  0  0  0  0  0  0  0  0  0  0  0
    0.4785    3.8932    3.1058 H   0  0  0  0  0  0  0  0  0  0  0  0
   -3.1101    3.0789    2.6463 H   0  0  0  0  0  0  0  0  0  0  0  0
   -1.2144    6.8588    2.4899 H   0  0  0  0  0  0  0  0  0  0  0  0
   -2.8035    6.4796    2.5200 H   0  0  0  0  0  0  0  0  0  0  0  0
   -1.2871    6.8391    4.4810 H   0  0  0  0  0  0  0  0  0  0  0  0
   -0.1060    5.6693    6.8751 H   0  0  0  0  0  0  0  0  0  0  0  0
    0.3302    3.9520    6.9531 H   0  0  0  0  0  0  0  0  0  0  0  0
   -2.9603    4.3358    8.1829 H   0  0  0  0  0  0  0  0  0  0  0  0
   -3.4188    3.3449   10.3497 H   0  0  0  0  0  0  0  0  0  0  0  0
   -1.5349    2.7661   11.8325 H   0  0  0  0  0  0  0  0  0  0  0  0
    0.4546    4.3024   11.6733 H   0  0  0  0  0  0  0  0  0  0  0  0
    0.9936    5.1327    9.3671 H   0  0  0  0  0  0  0  0  0  0  0  0
   -0.7969    2.8668    7.2745 H   0  0  0  0  0  0  0  0  0  0  0  0
   -1.8749    1.1380    7.3749 H   0  0  0  0  0  0  0  0  0  0  0  0
   -2.7003    1.2234    5.9263 H   0  0  0  0  0  0  0  0  0  0  0  0
    0.8585   -0.5742    6.6735 H   0  0  0  0  0  0  0  0  0  0  0  0
   -2.7945   -1.0784    4.8712 H   0  0  0  0  0  0  0  0  0  0  0  0
    0.2608    1.4118    3.7221 H   0  0  0  0  0  0  0  0  0  0  0  0
   -1.3302   -1.9855    1.9918 H   0  0  0  0  0  0  0  0  0  0  0  0
   -1.5222   -0.4331    1.4231 H   0  0  0  0  0  0  0  0  0  0  0  0
    0.4758   -0.2504    1.2772 H   0  0  0  0  0  0  0  0  0  0  0  0
    2.9581   -0.3211    0.0315 H   0  0  0  0  0  0  0  0  0  0  0  0
    1.5272    0.4559    0.6710 H   0  0  0  0  0  0  0  0  0  0  0  0
    3.1356   -0.4130   -2.3445 H   0  0  0  0  0  0  0  0  0  0  0  0
    2.3640    0.3512   -4.4735 H   0  0  0  0  0  0  0  0  0  0  0  0
    0.2104    1.4337   -4.5854 H   0  0  0  0  0  0  0  0  0  0  0  0
   -1.2490    1.4429   -2.6923 H   0  0  0  0  0  0  0  0  0  0  0  0
   -0.7044   -0.0719   -0.8174 H   0  0  0  0  0  0  0  0  0  0  0  0
    3.6782   -3.6738    1.1074 H   0  0  0  0  0  0  0  0  0  0  0  0
    5.3932   -3.9657    1.8850 H   0  0  0  0  0  0  0  0  0  0  0  0
    5.8076   -2.2450    1.9501 H   0  0  0  0  0  0  0  0  0  0  0  0
    4.1580   -2.4009   -1.6114 H   0  0  0  0  0  0  0  0  0  0  0  0
    7.7775   -1.1864   -2.6108 H   0  0  0  0  0  0  0  0  0  0  0  0
    7.8754   -3.9395   -0.1975 H   0  0  0  0  0  0  0  0  0  0  0  0
    6.4874   -5.1439   -2.9270 H   0  0  0  0  0  0  0  0  0  0  0  0
    7.4285   -4.2557   -3.9602 H   0  0  0  0  0  0  0  0  0  0  0  0
    5.7108   -3.3552   -4.6626 H   0  0  0  0  0  0  0  0  0  0  0  0
    5.0767   -4.9634   -5.8992 H   0  0  0  0  0  0  0  0  0  0  0  0
    3.5479   -4.1018   -6.4197 H   0  0  0  0  0  0  0  0  0  0  0  0
    6.4928   -4.0028   -7.4762 H   0  0  0  0  0  0  0  0  0  0  0  0
    7.9125   -2.0836   -8.0193 H   0  0  0  0  0  0  0  0  0  0  0  0
    6.9516    0.1442   -7.7513 H   0  0  0  0  0  0  0  0  0  0  0  0
    4.6910    0.4453   -6.7978 H   0  0  0  0  0  0  0  0  0  0  0  0
    3.4851   -1.5521   -5.8568 H   0  0  0  0  0  0  0  0  0  0  0  0
    1.0189   -4.3467   -5.2348 H   0  0  0  0  0  0  0  0  0  0  0  0
    0.1550   -6.1927   -3.5488 H   0  0  0  0  0  0  0  0  0  0  0  0
   -0.5748   -5.3043   -4.7267 H   0  0  0  0  0  0  0  0  0  0  0  0
    0.9791   -4.0380   -0.9683 H   0  0  0  0  0  0  0  0  0  0  0  0
   -1.8335   -2.2600   -0.2948 H   0  0  0  0  0  0  0  0  0  0  0  0
   -0.3634   -1.9803   -3.6423 H   0  0  0  0  0  0  0  0  0  0  0  0
   -3.6282   -2.6936   -4.0644 H   0  0  0  0  0  0  0  0  0  0  0  0
   -4.1391   -3.4847   -2.7269 H   0  0  0  0  0  0  0  0  0  0  0  0
   -4.8379   -1.7746   -2.1338 H   0  0  0  0  0  0  0  0  0  0  0  0
   -1.5960   -6.5023   -0.9653 H   0  0  0  0  0  0  0  0  0  0  0  0
   -3.0224   -5.6314   -0.8445 H   0  0  0  0  0  0  0  0  0  0  0  0
   -1.2397   -6.5133    0.9315 H   0  0  0  0  0  0  0  0  0  0  0  0
   -2.9120   -4.1341    4.8349 H   0  0  0  0  0  0  0  0  0  0  0  0
   -3.4476   -3.9308    3.0744 H   0  0  0  0  0  0  0  0  0  0  0  0
   -5.4809   -5.2691    3.2220 H   0  0  0  0  0  0  0  0  0  0  0  0
   -6.5763   -7.4688    3.7140 H   0  0  0  0  0  0  0  0  0  0  0  0
   -5.1636   -9.4010    4.3569 H   0  0  0  0  0  0  0  0  0  0  0  0
   -2.7556   -9.1393    4.6773 H   0  0  0  0  0  0  0  0  0  0  0  0
   -1.7661   -6.9642    4.4165 H   0  0  0  0  0  0  0  0  0  0  0  0
   -1.7607   -3.9060    4.9364 H   0  0  0  0  0  0  0  0  0  0  0  0
    0.8202   -3.2465    4.8246 H   0  0  0  0  0  0  0  0  0  0  0  0
   -0.3214   -3.7156    6.2087 H   0  0  0  0  0  0  0  0  0  0  0  0
    5.6158    0.1463    0.5053 H   0  0  0  0  0  0  0  0  0  0  0  0
    6.9173    0.6667   -0.2536 H   0  0  0  0  0  0  0  0  0  0  0  0
    5.9875    1.8516   -1.4941 H   0  0  0  0  0  0  0  0  0  0  0  0
    6.1571    3.1365   -1.7987 H   0  0  0  0  0  0  0  0  0  0  0  0
    5.1968    4.1345   -0.6960 H   0  0  0  0  0  0  0  0  0  0  0  0
    5.5969    3.1429   -4.1791 H   0  0  0  0  0  0  0  0  0  0  0  0
    4.7564    4.5177   -6.0044 H   0  0  0  0  0  0  0  0  0  0  0  0
    2.6107    5.7517   -5.5224 H   0  0  0  0  0  0  0  0  0  0  0  0
    2.3985    6.7497   -3.2294 H   0  0  0  0  0  0  0  0  0  0  0  0
    4.0156    5.9612   -1.4696 H   0  0  0  0  0  0  0  0  0  0  0  0
    1.4087    3.2493   -1.2831 H   0  0  0  0  0  0  0  0  0  0  0  0
    1.2334    5.5045    0.1267 H   0  0  0  0  0  0  0  0  0  0  0  0
    0.2685    4.7885   -1.0312 H   0  0  0  0  0  0  0  0  0  0  0  0
  1  2  2  0
  2  3  1  0
  3  4  2  0
  4  5  1  0
  5  6  2  0
  4  7  1  0
  7  8  1  0
  8  9  2  0
  9 10  1  0
 10 11  1  0
 11 12  1  0
 12 13  2  0
 13 14  1  0
 14 15  2  0
 15 16  1  0
 16 17  2  0
 16 18  1  0
 18 19  1  0
 19 20  1  0
 20 21  2  0
 21 22  1  0
 22 23  1  0
 23 24  2  0
 24 25  1  0
 25 26  2  0
 26 27  1  0
 27 28  2  0
 21 29  1  0
 29 30  1  0
 30 31  1  0
 31 32  1  0
 32 33  2  0
 33 34  1  0
 34 35  2  0
 35 36  1  0
 35 37  1  0
 37 38  1  0
 38 39  1  0
 39 40  1  0
 40 41  1  0
 41 42  2  0
 42 43  1  0
 43 44  2  0
 44 45  1  0
 45 46  2  0
 39 47  2  0
 47 48  1  0
 48 49  1  0
 49 50  1  0
 50 51  1  0
 51 52  2  0
 52 53  1  0
 53 54  2  0
 54 55  1  0
 54 56  1  0
 56 57  1  0
 57 58  1  0
 58 59  1  0
 59 60  1  0
 60 61  2  0
 61 62  1  0
 62 63  2  0
 63 64  1  0
 64 65  2  0
 58 66  2  0
 66 67  1  0
 67 68  1  0
 68 69  1  0
 69 70  1  0
 70 71  2  0
 71 72  1  0
 72 73  2  0
 73 74  1  0
 73 75  1  0
 75 76  1  0
 71 77  1  0
 77 78  1  0
 78 79  1  0
 79 80  2  0
 80 81  1  0
 81 82  1  0
 82 83  2  0
 83 84  1  0
 84 85  2  0
 85 86  1  0
 86 87  2  0
 80 88  1  0
 88 89  1  0
 52 90  1  0
 90 91  1  0
 91 92  1  0
 92 93  1  0
 93 94  1  0
 94 95  2  0
 95 96  1  0
 96 97  2  0
 97 98  1  0
 98 99  2  0
 92100  2  0
100101  1  0
101102  1  0
  6  1  1  0
 76  8  1  0
 87 82  1  0
 99 94  1  0
 17 12  1  0
 28 23  1  0
 36 31  2  0
 46 41  1  0
 55 50  2  0
 65 60  1  0
 74 69  2  0
102 14  1  0
 89 33  1  0
  1103  1  0
  2104  1  0
  3105  1  0
  5106  1  0
  6107  1  0
  7108  1  0
  7109  1  0
 10110  1  0
 11111  1  0
 11112  1  0
 13113  1  0
 15114  1  0
 17115  1  0
 18116  1  0
 18117  1  0
 19118  1  0
 22119  1  0
 22120  1  0
 24121  1  0
 25122  1  0
 26123  1  0
 27124  1  0
 28125  1  0
 29126  1  0
 30127  1  0
 30128  1  0
 32129  1  0
 34130  1  0
 36131  1  0
 37132  1  0
 37133  1  0
 38134  1  0
 40135  1  0
 40136  1  0
 42137  1  0
 43138  1  0
 44139  1  0
 45140  1  0
 46141  1  0
 48142  1  0
 49143  1  0
 49144  1  0
 51145  1  0
 53146  1  0
 55147  1  0
 56148  1  0
 56149  1  0
 57150  1  0
 59151  1  0
 59152  1  0
 61153  1  0
 62154  1  0
 63155  1  0
 64156  1  0
 65157  1  0
 67158  1  0
 68159  1  0
 68160  1  0
 70161  1  0
 72162  1  0
 74163  1  0
 75164  1  0
 75165  1  0
 76166  1  0
 77167  1  0
 77168  1  0
 78169  1  0
 81170  1  0
 81171  1  0
 83172  1  0
 84173  1  0
 85174  1  0
 86175  1  0
 87176  1  0
 88177  1  0
 89178  1  0
 89179  1  0
 90180  1  0
 90181  1  0
 91182  1  0
 93183  1  0
 93184  1  0
 95185  1  0
 96186  1  0
 97187  1  0
 98188  1  0
 99189  1  0
101190  1  0
102191  1  0
102192  1  0
M  END
