
     RDKit          3D

144156  0  0  0  0  0  0  0  0999 V2000
   -3.2858    1.6169   -5.7740 C   0  0  0  0  0  0  0  0  0  0  0  0
   -3.4145    0.1998   -5.9121 C   0  0  0  0  0  0  0  0  0  0  0  0
   -2.1928   -0.0992   -6.5848 C   0  0  0  0  0  0  0  0  0  0  0  0
   -1.0228    0.1496   -5.8043 C   0  0  0  0  0  0  0  0  0  0  0  0
   -1.0967    1.5644   -5.6288 C   0  0  0  0  0  0  0  0  0  0  0  0
   -2.2359    1.9907   -4.8838 C   0  0  0  0  0  0  0  0  0  0  0  0
   -2.3127    2.4833   -3.4357 C   0  0  0  0  0  0  0  0  0  0  0  0
   -1.3833    1.8356   -2.5490 N   0  0  0  0  0  0  0  0  0  0  0  0
   -0.4929    1.0774   -1.7160 C   0  0  0  0  0  0  0  0  0  0  0  0
   -0.0585    2.3204   -1.3413 C   0  0  0  0  0  0  0  0  0  0  0  0
    0.3932    2.1735   -0.0715 N   0  0  0  0  0  0  0  0  0  0  0  0
    0.7837    0.8899    0.1369 C   0  0  0  0  0  0  0  0  0  0  0  0
    0.2313    0.1866   -0.9296 C   0  0  0  0  0  0  0  0  0  0  0  0
    0.9433   -0.8969   -0.3354 N   0  0  0  0  0  0  0  0  0  0  0  0
    1.7422   -2.0495    0.0880 C   0  0  0  0  0  0  0  0  0  0  0  0
    1.5273   -2.3003    1.5883 C   0  0  0  0  0  0  0  0  0  0  0  0
    0.4074   -2.9354    2.2046 C   0  0  0  0  0  0  0  0  0  0  0  0
    0.6497   -4.2850    2.6042 C   0  0  0  0  0  0  0  0  0  0  0  0
    1.6534   -4.1014    3.6029 C   0  0  0  0  0  0  0  0  0  0  0  0
    2.8786   -3.5458    3.1214 C   0  0  0  0  0  0  0  0  0  0  0  0
    2.4451   -2.2590    2.6854 C   0  0  0  0  0  0  0  0  0  0  0  0
    4.2155   -4.2354    2.8057 C   0  0  0  0  0  0  0  0  0  0  0  0
    5.3315   -3.4590    3.3474 N   0  0  0  0  0  0  0  0  0  0  0  0
    6.1044   -2.2584    3.4860 C   0  0  0  0  0  0  0  0  0  0  0  0
    6.1004   -2.6401    4.8225 C   0  0  0  0  0  0  0  0  0  0  0  0
    6.3839   -1.5348    5.5537 N   0  0  0  0  0  0  0  0  0  0  0  0
    6.8196   -0.5448    4.7444 C   0  0  0  0  0  0  0  0  0  0  0  0
    6.5913   -0.9543    3.4362 C   0  0  0  0  0  0  0  0  0  0  0  0
    6.9139    0.3985    3.1497 N   0  0  0  0  0  0  0  0  0  0  0  0
    7.0644    1.7417    2.5952 C   0  0  0  0  0  0  0  0  0  0  0  0
    6.0352    2.0432    1.5141 C   0  0  0  0  0  0  0  0  0  0  0  0
    6.2122    2.5976    0.2100 C   0  0  0  0  0  0  0  0  0  0  0  0
    5.2652    2.0646   -0.7075 C   0  0  0  0  0  0  0  0  0  0  0  0
    4.0905    2.7922   -0.3605 C   0  0  0  0  0  0  0  0  0  0  0  0
    3.9171    3.0198    1.0406 C   0  0  0  0  0  0  0  0  0  0  0  0
    4.6164    1.9212    1.6223 C   0  0  0  0  0  0  0  0  0  0  0  0
    3.4984    4.2900    1.7759 C   0  0  0  0  0  0  0  0  0  0  0  0
    2.4368    4.0103    2.7471 N   0  0  0  0  0  0  0  0  0  0  0  0
    1.2097    3.7504    3.4464 C   0  0  0  0  0  0  0  0  0  0  0  0
    2.0831    3.2674    4.4133 C   0  0  0  0  0  0  0  0  0  0  0  0
    1.3968    2.3720    5.1651 N   0  0  0  0  0  0  0  0  0  0  0  0
    0.0938    2.3585    4.7906 C   0  0  0  0  0  0  0  0  0  0  0  0
   -0.0540    3.2312    3.7192 C   0  0  0  0  0  0  0  0  0  0  0  0
   -1.3711    2.6639    3.6808 N   0  0  0  0  0  0  0  0  0  0  0  0
   -2.7437    2.2073    3.4582 C   0  0  0  0  0  0  0  0  0  0  0  0
   -2.8297    1.5111    2.0914 C   0  0  0  0  0  0  0  0  0  0  0  0
   -3.2656    2.0225    0.8284 C   0  0  0  0  0  0  0  0  0  0  0  0
   -4.4694    1.4628    0.2950 C   0  0  0  0  0  0  0  0  0  0  0  0
   -4.0994    0.0946    0.1367 C   0  0  0  0  0  0  0  0  0  0  0  0
   -3.8250   -0.5532    1.3786 C   0  0  0  0  0  0  0  0  0  0  0  0
   -2.6380    0.1287    1.7884 C   0  0  0  0  0  0  0  0  0  0  0  0
   -4.6970   -1.5441    2.1606 C   0  0  0  0  0  0  0  0  0  0  0  0
   -4.3588   -2.9089    1.7593 N   0  0  0  0  0  0  0  0  0  0  0  0
   -3.6339   -4.1434    1.6473 C   0  0  0  0  0  0  0  0  0  0  0  0
   -4.2276   -4.1482    0.3898 C   0  0  0  0  0  0  0  0  0  0  0  0
   -3.4697   -4.9125   -0.4363 N   0  0  0  0  0  0  0  0  0  0  0  0
   -2.3051   -5.2511    0.1716 C   0  0  0  0  0  0  0  0  0  0  0  0
   -2.5743   -5.0406    1.5213 C   0  0  0  0  0  0  0  0  0  0  0  0
   -1.2376   -5.5351    1.6629 N   0  0  0  0  0  0  0  0  0  0  0  0
    0.2087   -5.5713    1.8907 C   0  0  0  0  0  0  0  0  0  0  0  0
   -5.8855    2.0563    0.1963 C   0  0  0  0  0  0  0  0  0  0  0  0
   -6.4401    1.8484   -1.1410 N   0  0  0  0  0  0  0  0  0  0  0  0
   -6.6089    1.1500   -2.3857 C   0  0  0  0  0  0  0  0  0  0  0  0
   -7.1043    2.3874   -2.7815 C   0  0  0  0  0  0  0  0  0  0  0  0
   -7.2290    2.3620   -4.1311 N   0  0  0  0  0  0  0  0  0  0  0  0
   -6.7533    1.1891   -4.6164 C   0  0  0  0  0  0  0  0  0  0  0  0
   -6.2631    0.4604   -3.5470 C   0  0  0  0  0  0  0  0  0  0  0  0
   -5.4600   -0.1527   -4.5720 N   0  0  0  0  0  0  0  0  0  0  0  0
   -4.3678   -0.8027   -5.2399 C   0  0  0  0  0  0  0  0  0  0  0  0
    5.3955    0.7684   -1.5234 C   0  0  0  0  0  0  0  0  0  0  0  0
    4.5543    0.7669   -2.6839 N   0  0  0  0  0  0  0  0  0  0  0  0
    3.5301    0.5125   -3.6548 C   0  0  0  0  0  0  0  0  0  0  0  0
    4.5872    0.7087   -4.5360 C   0  0  0  0  0  0  0  0  0  0  0  0
    4.0433    0.6496   -5.7759 N   0  0  0  0  0  0  0  0  0  0  0  0
    2.8160    0.0762   -5.7339 C   0  0  0  0  0  0  0  0  0  0  0  0
    2.4418    0.0651   -4.3958 C   0  0  0  0  0  0  0  0  0  0  0  0
    1.2167   -0.4326   -4.9505 N   0  0  0  0  0  0  0  0  0  0  0  0
   -0.1588   -0.8589   -5.0290 C   0  0  0  0  0  0  0  0  0  0  0  0
   -4.0290    2.3181   -6.1623 H   0  0  0  0  0  0  0  0  0  0  0  0
   -2.1526   -0.5610   -7.5771 H   0  0  0  0  0  0  0  0  0  0  0  0
   -0.3063    2.2448   -5.9608 H   0  0  0  0  0  0  0  0  0  0  0  0
   -3.2763    2.3098   -2.9598 H   0  0  0  0  0  0  0  0  0  0  0  0
   -2.1695    3.5946   -3.4107 H   0  0  0  0  0  0  0  0  0  0  0  0
   -1.4899    2.5893   -1.8196 H   0  0  0  0  0  0  0  0  0  0  0  0
    0.0639    3.1706   -2.0149 H   0  0  0  0  0  0  0  0  0  0  0  0
    0.7092    3.0348    0.4467 H   0  0  0  0  0  0  0  0  0  0  0  0
    1.7643    0.7190    0.5927 H   0  0  0  0  0  0  0  0  0  0  0  0
    0.7056   -0.5614    0.6358 H   0  0  0  0  0  0  0  0  0  0  0  0
    1.5748   -2.9358   -0.5310 H   0  0  0  0  0  0  0  0  0  0  0  0
    2.7631   -1.7427   -0.1506 H   0  0  0  0  0  0  0  0  0  0  0  0
   -0.5741   -2.4592    2.2984 H   0  0  0  0  0  0  0  0  0  0  0  0
    1.5302   -4.4467    4.6348 H   0  0  0  0  0  0  0  0  0  0  0  0
    2.8578   -1.3225    3.0722 H   0  0  0  0  0  0  0  0  0  0  0  0
    4.3262   -4.4754    1.7465 H   0  0  0  0  0  0  0  0  0  0  0  0
    4.3371   -5.1805    3.3422 H   0  0  0  0  0  0  0  0  0  0  0  0
    4.8803   -3.4020    4.2983 H   0  0  0  0  0  0  0  0  0  0  0  0
    6.3165   -3.6685    5.1183 H   0  0  0  0  0  0  0  0  0  0  0  0
    6.1276   -1.4408    6.5502 H   0  0  0  0  0  0  0  0  0  0  0  0
    7.6566    0.0989    5.0219 H   0  0  0  0  0  0  0  0  0  0  0  0
    6.4783    0.7688    4.0353 H   0  0  0  0  0  0  0  0  0  0  0  0
    8.0940    1.7094    2.2285 H   0  0  0  0  0  0  0  0  0  0  0  0
    7.0716    2.5097    3.3917 H   0  0  0  0  0  0  0  0  0  0  0  0
    7.0245    3.2531   -0.0866 H   0  0  0  0  0  0  0  0  0  0  0  0
    3.3433    3.0924   -1.0989 H   0  0  0  0  0  0  0  0  0  0  0  0
    4.1019    1.0565    2.0488 H   0  0  0  0  0  0  0  0  0  0  0  0
    3.0381    5.0411    1.1228 H   0  0  0  0  0  0  0  0  0  0  0  0
    4.3230    4.8208    2.2592 H   0  0  0  0  0  0  0  0  0  0  0  0
    2.9946    3.2293    3.1832 H   0  0  0  0  0  0  0  0  0  0  0  0
    2.9278    3.8872    4.7215 H   0  0  0  0  0  0  0  0  0  0  0  0
    1.8685    1.8449    5.9325 H   0  0  0  0  0  0  0  0  0  0  0  0
   -0.6824    2.2504    5.5515 H   0  0  0  0  0  0  0  0  0  0  0  0
   -1.0572    1.7136    4.0105 H   0  0  0  0  0  0  0  0  0  0  0  0
   -3.3684    3.0972    3.5338 H   0  0  0  0  0  0  0  0  0  0  0  0
   -3.0733    1.5820    4.2916 H   0  0  0  0  0  0  0  0  0  0  0  0
   -2.7251    2.8224    0.3064 H   0  0  0  0  0  0  0  0  0  0  0  0
   -4.1059   -0.4256   -0.8250 H   0  0  0  0  0  0  0  0  0  0  0  0
   -1.6744   -0.3783    1.9023 H   0  0  0  0  0  0  0  0  0  0  0  0
   -4.6010   -1.4598    3.2430 H   0  0  0  0  0  0  0  0  0  0  0  0
   -5.7678   -1.4294    1.9810 H   0  0  0  0  0  0  0  0  0  0  0  0
   -4.3709   -2.6607    0.7350 H   0  0  0  0  0  0  0  0  0  0  0  0
   -5.3030   -3.9763    0.3000 H   0  0  0  0  0  0  0  0  0  0  0  0
   -3.7381   -5.2712   -1.3900 H   0  0  0  0  0  0  0  0  0  0  0  0
   -1.3469   -5.0576   -0.3217 H   0  0  0  0  0  0  0  0  0  0  0  0
   -1.3092   -6.1850    0.8802 H   0  0  0  0  0  0  0  0  0  0  0  0
    0.2976   -6.4561    2.5250 H   0  0  0  0  0  0  0  0  0  0  0  0
    0.7820   -5.7663    0.9822 H   0  0  0  0  0  0  0  0  0  0  0  0
   -5.8925    3.1431    0.3083 H   0  0  0  0  0  0  0  0  0  0  0  0
   -6.5438    1.6895    0.9951 H   0  0  0  0  0  0  0  0  0  0  0  0
   -6.3205    2.7967   -1.5299 H   0  0  0  0  0  0  0  0  0  0  0  0
   -7.8655    2.8780   -2.1715 H   0  0  0  0  0  0  0  0  0  0  0  0
   -7.3229    3.1939   -4.7508 H   0  0  0  0  0  0  0  0  0  0  0  0
   -7.0749    0.6631   -5.5178 H   0  0  0  0  0  0  0  0  0  0  0  0
   -5.4346    0.6858   -5.2102 H   0  0  0  0  0  0  0  0  0  0  0  0
   -4.8891   -1.4216   -6.0162 H   0  0  0  0  0  0  0  0  0  0  0  0
   -3.8646   -1.4220   -4.4863 H   0  0  0  0  0  0  0  0  0  0  0  0
    6.3946    0.6643   -1.9582 H   0  0  0  0  0  0  0  0  0  0  0  0
    5.1910   -0.1260   -0.9276 H   0  0  0  0  0  0  0  0  0  0  0  0
    5.0156    1.4742   -3.2756 H   0  0  0  0  0  0  0  0  0  0  0  0
    5.6179    0.3793   -4.3784 H   0  0  0  0  0  0  0  0  0  0  0  0
    4.5968    0.7873   -6.6617 H   0  0  0  0  0  0  0  0  0  0  0  0
    2.5546   -0.6965   -6.4616 H   0  0  0  0  0  0  0  0  0  0  0  0
    1.2852    0.1609   -5.7911 H   0  0  0  0  0  0  0  0  0  0  0  0
   -0.0586   -1.8123   -5.5635 H   0  0  0  0  0  0  0  0  0  0  0  0
   -0.5835   -1.0951   -4.0449 H   0  0  0  0  0  0  0  0  0  0  0  0
  1  2  2  0
  2  3  1  0
  3  4  2  0
  4  5  1  0
  5  6  2  0
  6  7  1  0
  7  8  1  0
  8  9  1  0
  9 10  2  0
 10 11  1  0
 11 12  1  0
 12 13  2  0
 13 14  1  0
 14 15  1  0
 15 16  1  0
 16 17  1  0
 17 18  2  0
 18 19  1  0
 19 20  2  0
 20 21  1  0
 20 22  1  0
 22 23  1  0
 23 24  1  0
 24 25  2  0
 25 26  1  0
 26 27  1  0
 27 28  2  0
 28 29  1  0
 29 30  1  0
 30 31  1  0
 31 32  1  0
 32 33  2  0
 33 34  1  0
 34 35  2  0
 35 36  1  0
 35 37  1  0
 37 38  1  0
 38 39  1  0
 39 40  2  0
 40 41  1  0
 41 42  1  0
 42 43  2  0
 43 44  1  0
 44 45  1  0
 45 46  1  0
 46 47  1  0
 47 48  2  0
 48 49  1  0
 49 50  2  0
 50 51  1  0
 50 52  1  0
 52 53  1  0
 53 54  1  0
 54 55  2  0
 55 56  1  0
 56 57  1  0
 57 58  2  0
 58 59  1  0
 59 60  1  0
 48 61  1  0
 61 62  1  0
 62 63  1  0
 63 64  2  0
 64 65  1  0
 65 66  1  0
 66 67  2  0
 67 68  1  0
 68 69  1  0
 33 70  1  0
 70 71  1  0
 71 72  1  0
 72 73  2  0
 73 74  1  0
 74 75  1  0
 75 76  2  0
 76 77  1  0
 77 78  1  0
  6  1  1  0
 13  9  1  0
 21 16  2  0
 28 24  1  0
 36 31  2  0
 43 39  1  0
 51 46  2  0
 58 54  1  0
 67 63  1  0
 76 72  1  0
 69  2  1  0
 78  4  1  0
 60 18  1  0
  1 79  1  0
  3 80  1  0
  5 81  1  0
  7 82  1  0
  7 83  1  0
  8 84  1  0
 10 85  1  0
 11 86  1  0
 12 87  1  0
 14 88  1  0
 15 89  1  0
 15 90  1  0
 17 91  1  0
 19 92  1  0
 21 93  1  0
 22 94  1  0
 22 95  1  0
 23 96  1  0
 25 97  1  0
 26 98  1  0
 27 99  1  0
 29100  1  0
 30101  1  0
 30102  1  0
 32103  1  0
 34104  1  0
 36105  1  0
 37106  1  0
 37107  1  0
 38108  1  0
 40109  1  0
 41110  1  0
 42111  1  0
 44112  1  0
 45113  1  0
 45114  1  0
 47115  1  0
 49116  1  0
 51117  1  0
 52118  1  0
 52119  1  0
 53120  1  0
 55121  1  0
 56122  1  0
 57123  1  0
 59124  1  0
 60125  1  0
 60126  1  0
 61127  1  0
 61128  1  0
 62129  1  0
 64130  1  0
 65131  1  0
 66132  1  0
 68133  1  0
 69134  1  0
 69135  1  0
 70136  1  0
 70137  1  0
 71138  1  0
 73139  1  0
 74140  1  0
 75141  1  0
 77142  1  0
 78143  1  0
 78144  1  0
M  END
