
     RDKit          3D

228246  0  0  0  0  0  0  0  0999 V2000
   -2.4430    2.2402   -4.5176 O   0  0  0  0  0  0  0  0  0  0  0  0
   -1.6879    1.3638   -3.9913 C   0  0  0  0  0  0  0  0  0  0  0  0
   -0.5563    1.6164   -4.7967 N   0  0  0  0  0  0  0  0  0  0  0  0
    0.7616    1.8130   -5.3191 C   0  0  0  0  0  0  0  0  0  0  0  0
    1.6930    0.6237   -5.0371 C   0  0  0  0  0  0  0  0  0  0  0  0
    2.3367    0.2790   -3.8083 C   0  0  0  0  0  0  0  0  0  0  0  0
    1.7756   -0.8263   -3.0970 C   0  0  0  0  0  0  0  0  0  0  0  0
    2.0003   -1.8819   -4.0316 C   0  0  0  0  0  0  0  0  0  0  0  0
    1.2755   -1.7425   -5.2555 C   0  0  0  0  0  0  0  0  0  0  0  0
    1.8948   -0.5738   -5.7929 C   0  0  0  0  0  0  0  0  0  0  0  0
   -0.0264   -2.4171   -5.7188 C   0  0  0  0  0  0  0  0  0  0  0  0
    0.0713   -2.8341   -7.1084 N   0  0  0  0  0  0  0  0  0  0  0  0
    0.7762   -4.0736   -7.2821 C   0  0  0  0  0  0  0  0  0  0  0  0
   -0.1608   -5.2466   -7.5764 C   0  0  0  0  0  0  0  0  0  0  0  0
   -0.1959   -6.0351   -6.3545 N   0  0  0  0  0  0  0  0  0  0  0  0
   -0.1514   -6.5376   -5.0930 C   0  0  0  0  0  0  0  0  0  0  0  0
   -1.4240   -6.9476   -4.6897 C   0  0  0  0  0  0  0  0  0  0  0  0
   -2.1589   -6.8746   -5.8714 C   0  0  0  0  0  0  0  0  0  0  0  0
   -3.4944   -6.9892   -6.2002 C   0  0  0  0  0  0  0  0  0  0  0  0
   -3.8555   -6.9708   -7.5423 C   0  0  0  0  0  0  0  0  0  0  0  0
   -2.8845   -7.0571   -8.5334 C   0  0  0  0  0  0  0  0  0  0  0  0
   -1.5493   -6.8150   -8.2251 C   0  0  0  0  0  0  0  0  0  0  0  0
   -1.2686   -6.6043   -6.9062 C   0  0  0  0  0  0  0  0  0  0  0  0
    0.0542   -7.0714   -3.7358 C   0  0  0  0  0  0  0  0  0  0  0  0
   -0.7202   -8.0367   -4.0224 O   0  0  0  0  0  0  0  0  0  0  0  0
    0.3987   -7.5205   -2.4166 N   0  0  0  0  0  0  0  0  0  0  0  0
    0.5777   -7.4219   -0.9996 C   0  0  0  0  0  0  0  0  0  0  0  0
    2.0704   -7.3819   -0.6210 C   0  0  0  0  0  0  0  0  0  0  0  0
    3.1130   -6.5822   -1.1788 C   0  0  0  0  0  0  0  0  0  0  0  0
    3.4428   -5.4143   -0.4156 C   0  0  0  0  0  0  0  0  0  0  0  0
    3.9521   -6.0296    0.7690 C   0  0  0  0  0  0  0  0  0  0  0  0
    3.0019   -6.8046    1.5084 C   0  0  0  0  0  0  0  0  0  0  0  0
    2.7154   -7.8406    0.5667 C   0  0  0  0  0  0  0  0  0  0  0  0
    2.2262   -6.4438    2.7860 C   0  0  0  0  0  0  0  0  0  0  0  0
    0.9694   -5.8063    2.5063 N   0  0  0  0  0  0  0  0  0  0  0  0
   -0.2570   -5.1127    2.2447 C   0  0  0  0  0  0  0  0  0  0  0  0
   -0.9839   -6.0086    2.7823 O   0  0  0  0  0  0  0  0  0  0  0  0
   -1.3157   -4.1198    2.5158 C   0  0  0  0  0  0  0  0  0  0  0  0
   -1.9958   -5.2510    2.0633 C   0  0  0  0  0  0  0  0  0  0  0  0
   -3.3219   -4.9876    2.3969 C   0  0  0  0  0  0  0  0  0  0  0  0
   -4.5030   -5.6628    2.2572 C   0  0  0  0  0  0  0  0  0  0  0  0
   -5.5615   -5.3590    3.1053 C   0  0  0  0  0  0  0  0  0  0  0  0
   -5.4067   -4.4051    4.1050 C   0  0  0  0  0  0  0  0  0  0  0  0
   -4.2347   -3.6639    4.2209 C   0  0  0  0  0  0  0  0  0  0  0  0
   -3.3426   -3.8367    3.1789 C   0  0  0  0  0  0  0  0  0  0  0  0
   -2.1993   -3.1834    2.9501 N   0  0  0  0  0  0  0  0  0  0  0  0
   -3.0547   -2.0641    3.3015 C   0  0  0  0  0  0  0  0  0  0  0  0
   -2.3713   -0.8262    2.7142 C   0  0  0  0  0  0  0  0  0  0  0  0
   -2.4801    0.3152    3.5817 N   0  0  0  0  0  0  0  0  0  0  0  0
   -3.8101    0.4856    4.0676 C   0  0  0  0  0  0  0  0  0  0  0  0
   -4.1719    1.9363    4.3927 C   0  0  0  0  0  0  0  0  0  0  0  0
   -4.6429    2.9706    3.5292 C   0  0  0  0  0  0  0  0  0  0  0  0
   -4.0835    4.2680    3.7525 C   0  0  0  0  0  0  0  0  0  0  0  0
   -2.7261    3.9464    4.0468 C   0  0  0  0  0  0  0  0  0  0  0  0
   -2.5498    3.4159    5.3590 C   0  0  0  0  0  0  0  0  0  0  0  0
   -3.7541    2.6651    5.5456 C   0  0  0  0  0  0  0  0  0  0  0  0
   -1.3300    3.5404    6.2662 C   0  0  0  0  0  0  0  0  0  0  0  0
   -0.2559    2.6604    5.8458 N   0  0  0  0  0  0  0  0  0  0  0  0
    0.6488    1.9692    4.9752 C   0  0  0  0  0  0  0  0  0  0  0  0
    0.7732    0.9502    5.7267 O   0  0  0  0  0  0  0  0  0  0  0  0
    1.1994    1.1739    3.8614 C   0  0  0  0  0  0  0  0  0  0  0  0
    2.0064    0.8570    4.9568 C   0  0  0  0  0  0  0  0  0  0  0  0
    2.7287   -0.2491    4.5166 C   0  0  0  0  0  0  0  0  0  0  0  0
    3.7353   -1.0388    4.9965 C   0  0  0  0  0  0  0  0  0  0  0  0
    4.0629   -2.2098    4.3206 C   0  0  0  0  0  0  0  0  0  0  0  0
    3.2557   -2.6542    3.2774 C   0  0  0  0  0  0  0  0  0  0  0  0
    2.2370   -1.8561    2.7515 C   0  0  0  0  0  0  0  0  0  0  0  0
    2.2050   -0.5973    3.2740 C   0  0  0  0  0  0  0  0  0  0  0  0
    1.5938    0.4663    2.7695 N   0  0  0  0  0  0  0  0  0  0  0  0
    2.1764   -0.0008    1.5294 C   0  0  0  0  0  0  0  0  0  0  0  0
    1.2034   -0.4964    0.5347 C   0  0  0  0  0  0  0  0  0  0  0  0
    1.4409    0.0262   -0.8135 N   0  0  0  0  0  0  0  0  0  0  0  0
    0.8843   -0.8051   -1.8428 C   0  0  0  0  0  0  0  0  0  0  0  0
   -4.7534    5.6351    3.9337 C   0  0  0  0  0  0  0  0  0  0  0  0
   -4.4417    6.5030    2.7969 N   0  0  0  0  0  0  0  0  0  0  0  0
   -3.7729    7.0778    1.6652 C   0  0  0  0  0  0  0  0  0  0  0  0
   -4.8072    7.2063    0.9370 O   0  0  0  0  0  0  0  0  0  0  0  0
   -3.0185    7.8805    0.6842 C   0  0  0  0  0  0  0  0  0  0  0  0
   -3.7939    7.0184   -0.0929 C   0  0  0  0  0  0  0  0  0  0  0  0
   -3.6324    7.5310   -1.3791 C   0  0  0  0  0  0  0  0  0  0  0  0
   -4.0980    7.2038   -2.6283 C   0  0  0  0  0  0  0  0  0  0  0  0
   -3.7746    7.9968   -3.7230 C   0  0  0  0  0  0  0  0  0  0  0  0
   -3.4106    9.3185   -3.4922 C   0  0  0  0  0  0  0  0  0  0  0  0
   -3.0002    9.7218   -2.2253 C   0  0  0  0  0  0  0  0  0  0  0  0
   -2.9759    8.7520   -1.2656 C   0  0  0  0  0  0  0  0  0  0  0  0
   -2.3121    8.7263   -0.1100 N   0  0  0  0  0  0  0  0  0  0  0  0
   -1.3287    9.5301   -0.8190 C   0  0  0  0  0  0  0  0  0  0  0  0
   -0.0642    9.4978    0.0407 C   0  0  0  0  0  0  0  0  0  0  0  0
    0.9604    8.6549   -0.5180 N   0  0  0  0  0  0  0  0  0  0  0  0
    1.2104    7.4764    0.3125 C   0  0  0  0  0  0  0  0  0  0  0  0
    1.7066    6.3225   -0.5729 C   0  0  0  0  0  0  0  0  0  0  0  0
    0.9321    5.3187   -1.2335 C   0  0  0  0  0  0  0  0  0  0  0  0
    0.9779    4.0363   -0.6047 C   0  0  0  0  0  0  0  0  0  0  0  0
    2.3650    3.7169   -0.7784 C   0  0  0  0  0  0  0  0  0  0  0  0
    3.2638    4.5820   -0.0832 C   0  0  0  0  0  0  0  0  0  0  0  0
    3.0240    5.8063   -0.7821 C   0  0  0  0  0  0  0  0  0  0  0  0
    4.0681    4.3034    1.1959 C   0  0  0  0  0  0  0  0  0  0  0  0
    5.3773    3.7510    0.8398 N   0  0  0  0  0  0  0  0  0  0  0  0
    5.2813    2.3406    1.0575 C   0  0  0  0  0  0  0  0  0  0  0  0
    6.6338    1.6264    1.0147 C   0  0  0  0  0  0  0  0  0  0  0  0
    6.3445    0.2856    0.5483 N   0  0  0  0  0  0  0  0  0  0  0  0
    5.8150   -0.8455    0.0189 C   0  0  0  0  0  0  0  0  0  0  0  0
    6.6912   -1.4286   -0.8955 C   0  0  0  0  0  0  0  0  0  0  0  0
    7.8621   -0.7017   -0.6764 C   0  0  0  0  0  0  0  0  0  0  0  0
    9.1036   -0.6558   -1.2764 C   0  0  0  0  0  0  0  0  0  0  0  0
   10.0840    0.2101   -0.8072 C   0  0  0  0  0  0  0  0  0  0  0  0
    9.9046    0.8203    0.4291 C   0  0  0  0  0  0  0  0  0  0  0  0
    8.6632    0.8064    1.0598 C   0  0  0  0  0  0  0  0  0  0  0  0
    7.6583    0.1911    0.3709 C   0  0  0  0  0  0  0  0  0  0  0  0
    5.0849   -2.0225   -0.4826 C   0  0  0  0  0  0  0  0  0  0  0  0
    6.1599   -2.6916   -0.3927 O   0  0  0  0  0  0  0  0  0  0  0  0
    4.1870   -3.0811   -0.6437 N   0  0  0  0  0  0  0  0  0  0  0  0
    3.0209   -3.9481   -0.6047 C   0  0  0  0  0  0  0  0  0  0  0  0
   -0.1066    3.3916    0.2712 C   0  0  0  0  0  0  0  0  0  0  0  0
   -1.2285    2.9327   -0.5515 N   0  0  0  0  0  0  0  0  0  0  0  0
   -2.3505    2.8486    0.3616 C   0  0  0  0  0  0  0  0  0  0  0  0
   -3.5436    2.1264   -0.2573 C   0  0  0  0  0  0  0  0  0  0  0  0
   -3.1022    1.6751   -1.5702 N   0  0  0  0  0  0  0  0  0  0  0  0
   -2.4989    1.4180   -2.7594 C   0  0  0  0  0  0  0  0  0  0  0  0
   -3.4311    1.4466   -3.7966 C   0  0  0  0  0  0  0  0  0  0  0  0
   -4.6048    1.8223   -3.1445 C   0  0  0  0  0  0  0  0  0  0  0  0
   -5.9269    1.7591   -3.5690 C   0  0  0  0  0  0  0  0  0  0  0  0
   -6.9830    1.7796   -2.6658 C   0  0  0  0  0  0  0  0  0  0  0  0
   -6.6971    1.3339   -1.3799 C   0  0  0  0  0  0  0  0  0  0  0  0
   -5.3883    1.1499   -0.9421 C   0  0  0  0  0  0  0  0  0  0  0  0
   -4.4320    1.7204   -1.7656 C   0  0  0  0  0  0  0  0  0  0  0  0
   -1.1090    2.0492   -5.5512 H   0  0  0  0  0  0  0  0  0  0  0  0
    0.6550    2.0080   -6.3932 H   0  0  0  0  0  0  0  0  0  0  0  0
    1.2346    2.7730   -4.9871 H   0  0  0  0  0  0  0  0  0  0  0  0
    3.1717    0.8658   -3.4047 H   0  0  0  0  0  0  0  0  0  0  0  0
    2.5556   -2.7902   -3.7772 H   0  0  0  0  0  0  0  0  0  0  0  0
    2.4112   -0.5719   -6.7598 H   0  0  0  0  0  0  0  0  0  0  0  0
   -0.1927   -3.3785   -5.2237 H   0  0  0  0  0  0  0  0  0  0  0  0
   -0.9149   -1.8151   -5.4998 H   0  0  0  0  0  0  0  0  0  0  0  0
   -0.8830   -2.8230   -7.5176 H   0  0  0  0  0  0  0  0  0  0  0  0
    1.3752   -4.2444   -6.3671 H   0  0  0  0  0  0  0  0  0  0  0  0
    1.5090   -3.9114   -8.0999 H   0  0  0  0  0  0  0  0  0  0  0  0
   -1.1083   -4.7612   -7.8233 H   0  0  0  0  0  0  0  0  0  0  0  0
    0.3382   -5.7898   -8.3836 H   0  0  0  0  0  0  0  0  0  0  0  0
   -1.8230   -6.4597   -3.7881 H   0  0  0  0  0  0  0  0  0  0  0  0
   -4.2217   -6.7136   -5.4343 H   0  0  0  0  0  0  0  0  0  0  0  0
   -4.8247   -6.5424   -7.8042 H   0  0  0  0  0  0  0  0  0  0  0  0
   -3.2203   -7.1360   -9.5510 H   0  0  0  0  0  0  0  0  0  0  0  0
   -0.8367   -7.3859   -8.8240 H   0  0  0  0  0  0  0  0  0  0  0  0
   -0.1177   -8.4059   -2.4795 H   0  0  0  0  0  0  0  0  0  0  0  0
    0.0252   -6.5680   -0.5315 H   0  0  0  0  0  0  0  0  0  0  0  0
    0.0850   -8.3179   -0.6079 H   0  0  0  0  0  0  0  0  0  0  0  0
    3.5153   -6.7501   -2.1836 H   0  0  0  0  0  0  0  0  0  0  0  0
    4.9638   -5.8387    1.1444 H   0  0  0  0  0  0  0  0  0  0  0  0
    2.8513   -8.9027    0.7941 H   0  0  0  0  0  0  0  0  0  0  0  0
    2.7871   -5.7673    3.4356 H   0  0  0  0  0  0  0  0  0  0  0  0
    2.1236   -7.3398    3.4508 H   0  0  0  0  0  0  0  0  0  0  0  0
    0.4781   -6.7342    2.4113 H   0  0  0  0  0  0  0  0  0  0  0  0
   -1.7544   -5.5766    1.0425 H   0  0  0  0  0  0  0  0  0  0  0  0
   -4.5882   -6.3978    1.4724 H   0  0  0  0  0  0  0  0  0  0  0  0
   -6.3781   -6.0505    3.1898 H   0  0  0  0  0  0  0  0  0  0  0  0
   -6.0926   -4.4469    4.9530 H   0  0  0  0  0  0  0  0  0  0  0  0
   -3.9160   -3.4788    5.2489 H   0  0  0  0  0  0  0  0  0  0  0  0
   -3.0591   -1.8596    4.3751 H   0  0  0  0  0  0  0  0  0  0  0  0
   -4.0251   -2.0749    2.7978 H   0  0  0  0  0  0  0  0  0  0  0  0
   -2.7597   -0.5680    1.7187 H   0  0  0  0  0  0  0  0  0  0  0  0
   -1.2764   -1.0142    2.5734 H   0  0  0  0  0  0  0  0  0  0  0  0
   -1.8519    0.1473    4.3942 H   0  0  0  0  0  0  0  0  0  0  0  0
   -4.0765   -0.1892    4.9212 H   0  0  0  0  0  0  0  0  0  0  0  0
   -4.4821    0.0578    3.2881 H   0  0  0  0  0  0  0  0  0  0  0  0
   -5.4502    2.8075    2.8106 H   0  0  0  0  0  0  0  0  0  0  0  0
   -1.9161    4.1296    3.3362 H   0  0  0  0  0  0  0  0  0  0  0  0
   -4.3146    2.6498    6.4844 H   0  0  0  0  0  0  0  0  0  0  0  0
   -1.5278    3.2768    7.3067 H   0  0  0  0  0  0  0  0  0  0  0  0
   -0.9878    4.6021    6.3719 H   0  0  0  0  0  0  0  0  0  0  0  0
   -0.4715    1.8529    6.4499 H   0  0  0  0  0  0  0  0  0  0  0  0
    2.5497    1.6893    5.4266 H   0  0  0  0  0  0  0  0  0  0  0  0
    4.4249   -0.5713    5.7021 H   0  0  0  0  0  0  0  0  0  0  0  0
    5.0410   -2.6714    4.4630 H   0  0  0  0  0  0  0  0  0  0  0  0
    3.5289   -3.5770    2.7635 H   0  0  0  0  0  0  0  0  0  0  0  0
    1.3047   -2.4024    2.5851 H   0  0  0  0  0  0  0  0  0  0  0  0
    2.4826    0.9814    1.0527 H   0  0  0  0  0  0  0  0  0  0  0  0
    3.1584   -0.4496    1.5864 H   0  0  0  0  0  0  0  0  0  0  0  0
    0.1961   -0.1015    0.8201 H   0  0  0  0  0  0  0  0  0  0  0  0
    1.1035   -1.5674    0.3878 H   0  0  0  0  0  0  0  0  0  0  0  0
    2.4892    0.0069   -0.9258 H   0  0  0  0  0  0  0  0  0  0  0  0
   -0.1560   -0.5553   -2.0693 H   0  0  0  0  0  0  0  0  0  0  0  0
    0.8589   -1.7867   -1.3491 H   0  0  0  0  0  0  0  0  0  0  0  0
   -4.5452    6.1104    4.8999 H   0  0  0  0  0  0  0  0  0  0  0  0
   -5.8466    5.5844    3.9143 H   0  0  0  0  0  0  0  0  0  0  0  0
   -5.2872    6.3033    2.2376 H   0  0  0  0  0  0  0  0  0  0  0  0
   -3.6224    5.9428    0.0571 H   0  0  0  0  0  0  0  0  0  0  0  0
   -4.5277    6.2154   -2.7511 H   0  0  0  0  0  0  0  0  0  0  0  0
   -3.7819    7.5605   -4.7202 H   0  0  0  0  0  0  0  0  0  0  0  0
   -3.5835   10.0138   -4.2983 H   0  0  0  0  0  0  0  0  0  0  0  0
   -3.3016   10.7315   -1.9383 H   0  0  0  0  0  0  0  0  0  0  0  0
   -1.6067   10.5886   -0.8325 H   0  0  0  0  0  0  0  0  0  0  0  0
   -1.0036    9.0979   -1.7693 H   0  0  0  0  0  0  0  0  0  0  0  0
    0.3765   10.4940    0.1859 H   0  0  0  0  0  0  0  0  0  0  0  0
   -0.2777    9.1040    1.0635 H   0  0  0  0  0  0  0  0  0  0  0  0
    0.7815    8.4104   -1.5069 H   0  0  0  0  0  0  0  0  0  0  0  0
    1.9496    7.8028    1.0468 H   0  0  0  0  0  0  0  0  0  0  0  0
    0.3446    7.2161    0.9307 H   0  0  0  0  0  0  0  0  0  0  0  0
    0.2840    5.5373   -2.0889 H   0  0  0  0  0  0  0  0  0  0  0  0
    2.6890    2.8030   -1.2871 H   0  0  0  0  0  0  0  0  0  0  0  0
    3.8165    6.3795   -1.2700 H   0  0  0  0  0  0  0  0  0  0  0  0
    3.5387    3.6702    1.9171 H   0  0  0  0  0  0  0  0  0  0  0  0
    4.2875    5.2036    1.7717 H   0  0  0  0  0  0  0  0  0  0  0  0
    6.1378    4.1202    1.4359 H   0  0  0  0  0  0  0  0  0  0  0  0
    4.6293    1.9255    0.2477 H   0  0  0  0  0  0  0  0  0  0  0  0
    4.7423    2.1446    2.0016 H   0  0  0  0  0  0  0  0  0  0  0  0
    7.2215    2.2320    0.3225 H   0  0  0  0  0  0  0  0  0  0  0  0
    6.9386    1.6445    2.0657 H   0  0  0  0  0  0  0  0  0  0  0  0
    6.3295   -1.5237   -1.9306 H   0  0  0  0  0  0  0  0  0  0  0  0
    9.1790   -1.0308   -2.2986 H   0  0  0  0  0  0  0  0  0  0  0  0
   10.8110    0.6733   -1.4608 H   0  0  0  0  0  0  0  0  0  0  0  0
   10.7947    1.1645    0.9303 H   0  0  0  0  0  0  0  0  0  0  0  0
    8.7184    0.6908    2.1451 H   0  0  0  0  0  0  0  0  0  0  0  0
    4.9150   -3.8134   -0.6620 H   0  0  0  0  0  0  0  0  0  0  0  0
    2.5479   -3.7734   -1.5761 H   0  0  0  0  0  0  0  0  0  0  0  0
    2.2588   -3.6309    0.1186 H   0  0  0  0  0  0  0  0  0  0  0  0
   -0.4229    4.0265    1.1076 H   0  0  0  0  0  0  0  0  0  0  0  0
    0.2269    2.4711    0.7500 H   0  0  0  0  0  0  0  0  0  0  0  0
   -1.4271    3.6307   -1.2885 H   0  0  0  0  0  0  0  0  0  0  0  0
   -2.5813    3.8770    0.6716 H   0  0  0  0  0  0  0  0  0  0  0  0
   -1.9645    2.3353    1.2674 H   0  0  0  0  0  0  0  0  0  0  0  0
   -3.7261    1.2863    0.4208 H   0  0  0  0  0  0  0  0  0  0  0  0
   -4.3262    2.8926   -0.3001 H   0  0  0  0  0  0  0  0  0  0  0  0
   -3.4315    0.5740   -4.4675 H   0  0  0  0  0  0  0  0  0  0  0  0
   -6.0892    1.5247   -4.6226 H   0  0  0  0  0  0  0  0  0  0  0  0
   -7.9354    1.4290   -3.0675 H   0  0  0  0  0  0  0  0  0  0  0  0
   -7.4799    1.0203   -0.6883 H   0  0  0  0  0  0  0  0  0  0  0  0
   -5.2294    0.2164   -0.3969 H   0  0  0  0  0  0  0  0  0  0  0  0
  1  2  2  0
  2  3  1  0
  3  4  1  0
  4  5  1  0
  5  6  1  0
  6  7  2  0
  7  8  1  0
  8  9  2  0
  9 10  1  0
  9 11  1  0
 11 12  1  0
 12 13  1  0
 13 14  1  0
 14 15  1  0
 15 16  1  0
 16 17  2  0
 17 18  1  0
 18 19  2  0
 19 20  1  0
 20 21  2  0
 21 22  1  0
 22 23  2  0
 16 24  1  0
 24 25  2  0
 24 26  1  0
 26 27  1  0
 27 28  1  0
 28 29  1  0
 29 30  2  0
 30 31  1  0
 31 32  2  0
 32 33  1  0
 32 34  1  0
 34 35  1  0
 35 36  1  0
 36 37  2  0
 36 38  1  0
 38 39  2  0
 39 40  1  0
 40 41  2  0
 41 42  1  0
 42 43  2  0
 43 44  1  0
 44 45  2  0
 45 46  1  0
 46 47  1  0
 47 48  1  0
 48 49  1  0
 49 50  1  0
 50 51  1  0
 51 52  2  0
 52 53  1  0
 53 54  2  0
 54 55  1  0
 55 56  2  0
 55 57  1  0
 57 58  1  0
 58 59  1  0
 59 60  2  0
 59 61  1  0
 61 62  2  0
 62 63  1  0
 63 64  2  0
 64 65  1  0
 65 66  2  0
 66 67  1  0
 67 68  2  0
 68 69  1  0
 69 70  1  0
 70 71  1  0
 71 72  1  0
 72 73  1  0
 53 74  1  0
 74 75  1  0
 75 76  1  0
 76 77  2  0
 76 78  1  0
 78 79  2  0
 79 80  1  0
 80 81  2  0
 81 82  1  0
 82 83  2  0
 83 84  1  0
 84 85  2  0
 85 86  1  0
 86 87  1  0
 87 88  1  0
 88 89  1  0
 89 90  1  0
 90 91  1  0
 91 92  1  0
 92 93  2  0
 93 94  1  0
 94 95  2  0
 95 96  1  0
 95 97  1  0
 97 98  1  0
 98 99  1  0
 99100  1  0
100101  1  0
101102  1  0
102103  2  0
103104  1  0
104105  2  0
105106  1  0
106107  2  0
107108  1  0
108109  2  0
102110  1  0
110111  2  0
110112  1  0
112113  1  0
 93114  1  0
114115  1  0
115116  1  0
116117  1  0
117118  1  0
118119  1  0
119120  2  0
120121  1  0
121122  2  0
122123  1  0
123124  2  0
124125  1  0
125126  2  0
119  2  1  0
126121  1  0
 10  5  2  0
 23 15  1  0
 33 28  2  0
 46 38  1  0
 56 51  1  0
 69 61  1  0
 86 78  1  0
 96 91  2  0
109101  1  0
126118  1  0
 73  7  1  0
 85 80  1  0
109104  1  0
 23 18  1  0
113 30  1  0
 45 40  1  0
 68 63  1  0
  3127  1  0
  4128  1  0
  4129  1  0
  6130  1  0
  8131  1  0
 10132  1  0
 11133  1  0
 11134  1  0
 12135  1  0
 13136  1  0
 13137  1  0
 14138  1  0
 14139  1  0
 17140  1  0
 19141  1  0
 20142  1  0
 21143  1  0
 22144  1  0
 26145  1  0
 27146  1  0
 27147  1  0
 29148  1  0
 31149  1  0
 33150  1  0
 34151  1  0
 34152  1  0
 35153  1  0
 39154  1  0
 41155  1  0
 42156  1  0
 43157  1  0
 44158  1  0
 47159  1  0
 47160  1  0
 48161  1  0
 48162  1  0
 49163  1  0
 50164  1  0
 50165  1  0
 52166  1  0
 54167  1  0
 56168  1  0
 57169  1  0
 57170  1  0
 58171  1  0
 62172  1  0
 64173  1  0
 65174  1  0
 66175  1  0
 67176  1  0
 70177  1  0
 70178  1  0
 71179  1  0
 71180  1  0
 72181  1  0
 73182  1  0
 73183  1  0
 74184  1  0
 74185  1  0
 75186  1  0
 79187  1  0
 81188  1  0
 82189  1  0
 83190  1  0
 84191  1  0
 87192  1  0
 87193  1  0
 88194  1  0
 88195  1  0
 89196  1  0
 90197  1  0
 90198  1  0
 92199  1  0
 94200  1  0
 96201  1  0
 97202  1  0
 97203  1  0
 98204  1  0
 99205  1  0
 99206  1  0
100207  1  0
100208  1  0
103209  1  0
105210  1  0
106211  1  0
107212  1  0
108213  1  0
112214  1  0
113215  1  0
113216  1  0
114217  1  0
114218  1  0
115219  1  0
116220  1  0
116221  1  0
117222  1  0
117223  1  0
120224  1  0
122225  1  0
123226  1  0
124227  1  0
125228  1  0
M  END
