
     RDKit          3D

198210  0  0  0  0  0  0  0  0999 V2000
   -3.5911    1.8237   -2.7952 O   0  0  0  0  0  0  0  0  0  0  0  0
   -3.2346    1.9200   -1.7605 C   0  0  0  0  0  0  0  0  0  0  0  0
   -4.3321    2.6339   -1.1722 N   0  0  0  0  0  0  0  0  0  0  0  0
   -5.2920    3.4270   -0.4516 C   0  0  0  0  0  0  0  0  0  0  0  0
   -5.7331    2.7523    0.8644 C   0  0  0  0  0  0  0  0  0  0  0  0
   -6.5462    1.5873    0.9877 C   0  0  0  0  0  0  0  0  0  0  0  0
   -5.7477    0.4086    0.9231 C   0  0  0  0  0  0  0  0  0  0  0  0
   -4.5373    0.8194    1.5660 C   0  0  0  0  0  0  0  0  0  0  0  0
   -4.6230    1.6770    2.7057 C   0  0  0  0  0  0  0  0  0  0  0  0
   -5.2079    2.8704    2.1861 C   0  0  0  0  0  0  0  0  0  0  0  0
   -4.2927    1.3885    4.1534 C   0  0  0  0  0  0  0  0  0  0  0  0
   -3.0603    2.0412    4.6316 N   0  0  0  0  0  0  0  0  0  0  0  0
   -1.7170    2.3236    5.1216 C   0  0  0  0  0  0  0  0  0  0  0  0
   -1.8038    1.4103    6.0038 O   0  0  0  0  0  0  0  0  0  0  0  0
   -0.2776    2.3892    5.3075 N   0  0  0  0  0  0  0  0  0  0  0  0
   -0.4414    2.3747    6.7605 C   0  0  0  0  0  0  0  0  0  0  0  0
    0.5973    3.2479    7.4165 C   0  0  0  0  0  0  0  0  0  0  0  0
    1.4292    2.7582    8.4213 C   0  0  0  0  0  0  0  0  0  0  0  0
    2.5878    3.4628    8.7169 C   0  0  0  0  0  0  0  0  0  0  0  0
    2.6366    4.8074    8.3732 C   0  0  0  0  0  0  0  0  0  0  0  0
    1.5106    5.4047    7.8235 C   0  0  0  0  0  0  0  0  0  0  0  0
    0.4049    4.6247    7.5357 C   0  0  0  0  0  0  0  0  0  0  0  0
    1.0819    2.0040    5.2813 N   0  0  0  0  0  0  0  0  0  0  0  0
    1.9979    2.8479    4.6787 C   0  0  0  0  0  0  0  0  0  0  0  0
    3.1581    2.1825    3.9208 C   0  0  0  0  0  0  0  0  0  0  0  0
    3.5959    0.8270    4.0086 C   0  0  0  0  0  0  0  0  0  0  0  0
    3.7319    0.1819    2.7454 C   0  0  0  0  0  0  0  0  0  0  0  0
    4.8404    0.8888    2.2019 C   0  0  0  0  0  0  0  0  0  0  0  0
    4.4658    2.2195    1.8457 C   0  0  0  0  0  0  0  0  0  0  0  0
    4.1704    2.7902    3.1259 C   0  0  0  0  0  0  0  0  0  0  0  0
    4.4953    2.7834    0.4112 C   0  0  0  0  0  0  0  0  0  0  0  0
    3.5741    2.4684   -0.5127 N   0  0  0  0  0  0  0  0  0  0  0  0
    3.8308    1.6831   -1.6480 N   0  0  0  0  0  0  0  0  0  0  0  0
    3.9454    2.6740   -2.6471 C   0  0  0  0  0  0  0  0  0  0  0  0
    5.2716    2.8619   -3.2822 C   0  0  0  0  0  0  0  0  0  0  0  0
    5.3876    3.9789   -4.1018 C   0  0  0  0  0  0  0  0  0  0  0  0
    6.6052    4.6320   -4.2520 C   0  0  0  0  0  0  0  0  0  0  0  0
    7.5802    4.2988   -3.3198 C   0  0  0  0  0  0  0  0  0  0  0  0
    7.6013    2.9722   -2.9061 C   0  0  0  0  0  0  0  0  0  0  0  0
    6.4256    2.2319   -2.9520 C   0  0  0  0  0  0  0  0  0  0  0  0
    3.1812    0.6374   -2.3999 C   0  0  0  0  0  0  0  0  0  0  0  0
    3.6783    1.0448   -3.4546 O   0  0  0  0  0  0  0  0  0  0  0  0
    2.3972   -0.3694   -3.0562 N   0  0  0  0  0  0  0  0  0  0  0  0
    1.7709   -1.6778   -3.2177 C   0  0  0  0  0  0  0  0  0  0  0  0
    1.1304   -1.7820   -4.6059 C   0  0  0  0  0  0  0  0  0  0  0  0
   -0.1587   -1.3927   -5.0943 C   0  0  0  0  0  0  0  0  0  0  0  0
   -1.1413   -2.3915   -5.3735 C   0  0  0  0  0  0  0  0  0  0  0  0
   -0.4293   -3.1961   -6.3266 C   0  0  0  0  0  0  0  0  0  0  0  0
    0.7803   -3.7815   -5.8475 C   0  0  0  0  0  0  0  0  0  0  0  0
    1.5701   -2.6012   -5.6981 C   0  0  0  0  0  0  0  0  0  0  0  0
    0.9664   -5.1968   -5.2758 C   0  0  0  0  0  0  0  0  0  0  0  0
    2.3206   -5.5077   -4.9841 N   0  0  0  0  0  0  0  0  0  0  0  0
    2.6266   -5.5423   -3.6077 N   0  0  0  0  0  0  0  0  0  0  0  0
    3.9684   -5.1069   -3.6216 C   0  0  0  0  0  0  0  0  0  0  0  0
    5.0203   -6.1291   -3.7821 C   0  0  0  0  0  0  0  0  0  0  0  0
    6.3250   -5.6699   -3.6447 C   0  0  0  0  0  0  0  0  0  0  0  0
    7.3426   -6.4931   -3.1785 C   0  0  0  0  0  0  0  0  0  0  0  0
    7.0228   -7.8402   -3.0676 C   0  0  0  0  0  0  0  0  0  0  0  0
    5.8384   -8.3177   -3.6155 C   0  0  0  0  0  0  0  0  0  0  0  0
    4.8259   -7.4526   -4.0160 C   0  0  0  0  0  0  0  0  0  0  0  0
    2.3236   -5.4068   -2.2093 C   0  0  0  0  0  0  0  0  0  0  0  0
    3.5052   -5.6568   -1.9265 O   0  0  0  0  0  0  0  0  0  0  0  0
    1.9150   -4.8318   -0.9589 N   0  0  0  0  0  0  0  0  0  0  0  0
    1.2887   -4.1194    0.1556 C   0  0  0  0  0  0  0  0  0  0  0  0
   -0.2438   -4.1865    0.0384 C   0  0  0  0  0  0  0  0  0  0  0  0
   -1.2252   -4.4607    1.0416 C   0  0  0  0  0  0  0  0  0  0  0  0
   -2.0710   -3.3781    1.4443 C   0  0  0  0  0  0  0  0  0  0  0  0
   -2.7226   -3.1001    0.2034 C   0  0  0  0  0  0  0  0  0  0  0  0
   -1.8314   -2.5288   -0.7675 C   0  0  0  0  0  0  0  0  0  0  0  0
   -1.0426   -3.6946   -1.0422 C   0  0  0  0  0  0  0  0  0  0  0  0
   -1.4339   -1.0643   -0.8856 C   0  0  0  0  0  0  0  0  0  0  0  0
   -1.5219   -0.3259   -2.0197 N   0  0  0  0  0  0  0  0  0  0  0  0
   -2.2569    0.8847   -1.9891 N   0  0  0  0  0  0  0  0  0  0  0  0
   -1.9126    1.4751   -3.2102 C   0  0  0  0  0  0  0  0  0  0  0  0
   -1.5868    2.9446   -3.1538 C   0  0  0  0  0  0  0  0  0  0  0  0
   -1.7387    3.6295   -4.3551 C   0  0  0  0  0  0  0  0  0  0  0  0
   -0.9190    4.6627   -4.7409 C   0  0  0  0  0  0  0  0  0  0  0  0
    0.1978    4.9551   -4.0033 C   0  0  0  0  0  0  0  0  0  0  0  0
    0.2566    4.4197   -2.7242 C   0  0  0  0  0  0  0  0  0  0  0  0
   -0.5811    3.3829   -2.3303 C   0  0  0  0  0  0  0  0  0  0  0  0
   -2.0640   -2.5267    2.7233 C   0  0  0  0  0  0  0  0  0  0  0  0
   -1.3057   -1.3177    2.6198 N   0  0  0  0  0  0  0  0  0  0  0  0
   -0.3741   -0.2079    2.5676 C   0  0  0  0  0  0  0  0  0  0  0  0
   -1.1184    0.6692    2.2847 O   0  0  0  0  0  0  0  0  0  0  0  0
    0.6973    0.5806    1.9887 N   0  0  0  0  0  0  0  0  0  0  0  0
    0.1160    1.5469    1.2477 C   0  0  0  0  0  0  0  0  0  0  0  0
   -0.1738    2.9549    1.6143 C   0  0  0  0  0  0  0  0  0  0  0  0
   -1.4662    3.4998    1.4838 C   0  0  0  0  0  0  0  0  0  0  0  0
   -1.8113    4.7020    2.0392 C   0  0  0  0  0  0  0  0  0  0  0  0
   -0.8072    5.6330    2.2102 C   0  0  0  0  0  0  0  0  0  0  0  0
    0.4230    5.3240    1.6412 C   0  0  0  0  0  0  0  0  0  0  0  0
    0.6969    4.0085    1.2782 C   0  0  0  0  0  0  0  0  0  0  0  0
    1.8288    0.1897    1.2409 N   0  0  0  0  0  0  0  0  0  0  0  0
    2.7257   -0.6680    1.9472 C   0  0  0  0  0  0  0  0  0  0  0  0
   -2.4805   -2.7093   -4.6962 C   0  0  0  0  0  0  0  0  0  0  0  0
   -3.4021   -1.6427   -4.6296 N   0  0  0  0  0  0  0  0  0  0  0  0
   -4.3473   -1.7441   -3.5851 N   0  0  0  0  0  0  0  0  0  0  0  0
   -5.4730   -2.2293   -4.2815 C   0  0  0  0  0  0  0  0  0  0  0  0
   -6.6531   -1.3082   -4.3270 C   0  0  0  0  0  0  0  0  0  0  0  0
   -7.8894   -1.8647   -4.6249 C   0  0  0  0  0  0  0  0  0  0  0  0
   -8.9974   -1.0360   -4.7428 C   0  0  0  0  0  0  0  0  0  0  0  0
   -8.8312    0.3332   -4.5930 C   0  0  0  0  0  0  0  0  0  0  0  0
   -7.5397    0.8407   -4.6592 C   0  0  0  0  0  0  0  0  0  0  0  0
   -6.4331    0.0002   -4.6632 C   0  0  0  0  0  0  0  0  0  0  0  0
   -5.0844   -1.4120   -2.3824 C   0  0  0  0  0  0  0  0  0  0  0  0
   -5.6690   -2.5238   -2.4771 O   0  0  0  0  0  0  0  0  0  0  0  0
   -5.6453   -1.0109   -1.1100 N   0  0  0  0  0  0  0  0  0  0  0  0
   -6.0498   -0.9419    0.3012 C   0  0  0  0  0  0  0  0  0  0  0  0
   -4.8118    2.7259   -2.1065 H   0  0  0  0  0  0  0  0  0  0  0  0
   -4.8160    4.3983   -0.2745 H   0  0  0  0  0  0  0  0  0  0  0  0
   -6.1637    3.6953   -1.0641 H   0  0  0  0  0  0  0  0  0  0  0  0
   -7.6282    1.6150    1.0053 H   0  0  0  0  0  0  0  0  0  0  0  0
   -3.5701    0.6887    1.0609 H   0  0  0  0  0  0  0  0  0  0  0  0
   -5.1733    3.8412    2.6874 H   0  0  0  0  0  0  0  0  0  0  0  0
   -4.1455    0.3265    4.3844 H   0  0  0  0  0  0  0  0  0  0  0  0
   -5.1247    1.6462    4.8585 H   0  0  0  0  0  0  0  0  0  0  0  0
   -3.4086    2.0369    5.6278 H   0  0  0  0  0  0  0  0  0  0  0  0
   -1.3483    2.9035    7.1010 H   0  0  0  0  0  0  0  0  0  0  0  0
   -0.2693    1.3900    7.2108 H   0  0  0  0  0  0  0  0  0  0  0  0
    1.4840    1.6822    8.5886 H   0  0  0  0  0  0  0  0  0  0  0  0
    3.4909    2.9436    9.0004 H   0  0  0  0  0  0  0  0  0  0  0  0
    3.6228    5.2323    8.1936 H   0  0  0  0  0  0  0  0  0  0  0  0
    1.6459    6.4044    7.4317 H   0  0  0  0  0  0  0  0  0  0  0  0
   -0.3819    5.1040    6.9505 H   0  0  0  0  0  0  0  0  0  0  0  0
    1.2026    1.0103    5.0214 H   0  0  0  0  0  0  0  0  0  0  0  0
    2.4450    3.4262    5.5413 H   0  0  0  0  0  0  0  0  0  0  0  0
    1.4750    3.6105    4.1300 H   0  0  0  0  0  0  0  0  0  0  0  0
    3.7454    0.2873    4.9494 H   0  0  0  0  0  0  0  0  0  0  0  0
    5.8123    0.4329    2.0070 H   0  0  0  0  0  0  0  0  0  0  0  0
    4.7649    3.6423    3.4951 H   0  0  0  0  0  0  0  0  0  0  0  0
    4.5285    3.9124    0.4595 H   0  0  0  0  0  0  0  0  0  0  0  0
    5.5282    2.6538   -0.0207 H   0  0  0  0  0  0  0  0  0  0  0  0
    2.9125    3.2519   -0.7656 H   0  0  0  0  0  0  0  0  0  0  0  0
    3.0906    2.8623   -3.3096 H   0  0  0  0  0  0  0  0  0  0  0  0
    3.9095    3.6393   -2.0586 H   0  0  0  0  0  0  0  0  0  0  0  0
    4.5869    4.2885   -4.7754 H   0  0  0  0  0  0  0  0  0  0  0  0
    6.5355    5.6951   -4.4879 H   0  0  0  0  0  0  0  0  0  0  0  0
    8.3017    5.0286   -2.9477 H   0  0  0  0  0  0  0  0  0  0  0  0
    8.3896    2.7290   -2.1913 H   0  0  0  0  0  0  0  0  0  0  0  0
    6.3584    1.4343   -2.2096 H   0  0  0  0  0  0  0  0  0  0  0  0
    3.1533   -0.5879   -3.7564 H   0  0  0  0  0  0  0  0  0  0  0  0
    1.0762   -1.8599   -2.3989 H   0  0  0  0  0  0  0  0  0  0  0  0
    2.5564   -2.4088   -3.0423 H   0  0  0  0  0  0  0  0  0  0  0  0
   -0.3798   -0.3270   -5.2728 H   0  0  0  0  0  0  0  0  0  0  0  0
   -0.8295   -3.4085   -7.3256 H   0  0  0  0  0  0  0  0  0  0  0  0
    2.5132   -2.4453   -6.2269 H   0  0  0  0  0  0  0  0  0  0  0  0
    0.6750   -5.9670   -6.0344 H   0  0  0  0  0  0  0  0  0  0  0  0
    0.4289   -5.3198   -4.3143 H   0  0  0  0  0  0  0  0  0  0  0  0
    2.6948   -6.3766   -5.3955 H   0  0  0  0  0  0  0  0  0  0  0  0
    4.2524   -4.2493   -2.9907 H   0  0  0  0  0  0  0  0  0  0  0  0
    4.0469   -4.5954   -4.6275 H   0  0  0  0  0  0  0  0  0  0  0  0
    6.5405   -4.6008   -3.6022 H   0  0  0  0  0  0  0  0  0  0  0  0
    8.1121   -6.0652   -2.5334 H   0  0  0  0  0  0  0  0  0  0  0  0
    7.6267   -8.4321   -2.3805 H   0  0  0  0  0  0  0  0  0  0  0  0
    5.7105   -9.3838   -3.6046 H   0  0  0  0  0  0  0  0  0  0  0  0
    3.8165   -7.8388   -3.8605 H   0  0  0  0  0  0  0  0  0  0  0  0
    2.8486   -4.8180   -0.5214 H   0  0  0  0  0  0  0  0  0  0  0  0
    1.6539   -3.0990    0.2809 H   0  0  0  0  0  0  0  0  0  0  0  0
    1.6682   -4.6854    1.0109 H   0  0  0  0  0  0  0  0  0  0  0  0
   -1.3091   -5.4519    1.5077 H   0  0  0  0  0  0  0  0  0  0  0  0
   -3.8039   -3.1354    0.0599 H   0  0  0  0  0  0  0  0  0  0  0  0
   -1.0042   -4.1375   -2.0444 H   0  0  0  0  0  0  0  0  0  0  0  0
   -2.0265   -0.4341   -0.1718 H   0  0  0  0  0  0  0  0  0  0  0  0
   -0.4061   -0.9119   -0.4478 H   0  0  0  0  0  0  0  0  0  0  0  0
   -0.5709    0.0117   -2.3269 H   0  0  0  0  0  0  0  0  0  0  0  0
   -2.4600    1.1939   -4.1178 H   0  0  0  0  0  0  0  0  0  0  0  0
   -0.8733    1.1326   -3.4719 H   0  0  0  0  0  0  0  0  0  0  0  0
   -2.6543    3.4870   -4.9073 H   0  0  0  0  0  0  0  0  0  0  0  0
   -0.8365    4.8296   -5.8167 H   0  0  0  0  0  0  0  0  0  0  0  0
    0.9290    5.6632   -4.3806 H   0  0  0  0  0  0  0  0  0  0  0  0
    1.0821    4.6847   -2.0644 H   0  0  0  0  0  0  0  0  0  0  0  0
   -0.1107    2.6451   -1.6769 H   0  0  0  0  0  0  0  0  0  0  0  0
   -1.6675   -3.0765    3.5840 H   0  0  0  0  0  0  0  0  0  0  0  0
   -3.1114   -2.3163    3.0628 H   0  0  0  0  0  0  0  0  0  0  0  0
   -2.1011   -0.6732    2.8688 H   0  0  0  0  0  0  0  0  0  0  0  0
    0.8768    1.7085    0.4174 H   0  0  0  0  0  0  0  0  0  0  0  0
   -0.7283    1.3495    0.5450 H   0  0  0  0  0  0  0  0  0  0  0  0
   -2.2721    2.9190    1.0309 H   0  0  0  0  0  0  0  0  0  0  0  0
   -2.8316    4.9684    2.2821 H   0  0  0  0  0  0  0  0  0  0  0  0
   -1.0177    6.6560    2.4696 H   0  0  0  0  0  0  0  0  0  0  0  0
    1.0296    6.0718    1.1258 H   0  0  0  0  0  0  0  0  0  0  0  0
    1.7438    3.7517    1.4604 H   0  0  0  0  0  0  0  0  0  0  0  0
    1.6740    0.0101    0.2578 H   0  0  0  0  0  0  0  0  0  0  0  0
    3.2234   -1.4345    1.3418 H   0  0  0  0  0  0  0  0  0  0  0  0
    2.1002   -1.2900    2.6240 H   0  0  0  0  0  0  0  0  0  0  0  0
   -3.0695   -3.4398   -5.3105 H   0  0  0  0  0  0  0  0  0  0  0  0
   -2.3681   -3.2125   -3.7463 H   0  0  0  0  0  0  0  0  0  0  0  0
   -3.7739   -1.2663   -5.5014 H   0  0  0  0  0  0  0  0  0  0  0  0
   -5.1712   -2.1676   -5.3676 H   0  0  0  0  0  0  0  0  0  0  0  0
   -5.7275   -3.2906   -4.2341 H   0  0  0  0  0  0  0  0  0  0  0  0
   -7.9983   -2.9001   -4.9534 H   0  0  0  0  0  0  0  0  0  0  0  0
   -9.9923   -1.4634   -4.8210 H   0  0  0  0  0  0  0  0  0  0  0  0
   -9.6621    0.9048   -4.1817 H   0  0  0  0  0  0  0  0  0  0  0  0
   -7.4587    1.9183   -4.5881 H   0  0  0  0  0  0  0  0  0  0  0  0
   -5.4709    0.4921   -4.6229 H   0  0  0  0  0  0  0  0  0  0  0  0
   -6.5612   -1.4562   -1.3893 H   0  0  0  0  0  0  0  0  0  0  0  0
   -5.5911   -1.7910    0.8452 H   0  0  0  0  0  0  0  0  0  0  0  0
   -7.1301   -1.2270    0.4180 H   0  0  0  0  0  0  0  0  0  0  0  0
  1  2  2  0
  2  3  1  0
  3  4  1  0
  4  5  1  0
  5  6  2  0
  6  7  1  0
  7  8  2  0
  8  9  1  0
  9 10  2  0
  9 11  1  0
 11 12  1  0
 12 13  1  0
 13 14  2  0
 13 15  1  0
 15 16  1  0
 16 17  1  0
 17 18  2  0
 18 19  1  0
 19 20  2  0
 20 21  1  0
 21 22  2  0
 15 23  1  0
 23 24  1  0
 24 25  1  0
 25 26  1  0
 26 27  2  0
 27 28  1  0
 28 29  2  0
 29 30  1  0
 29 31  1  0
 31 32  1  0
 32 33  1  0
 33 34  1  0
 34 35  1  0
 35 36  2  0
 36 37  1  0
 37 38  2  0
 38 39  1  0
 39 40  2  0
 33 41  1  0
 41 42  2  0
 41 43  1  0
 43 44  1  0
 44 45  1  0
 45 46  1  0
 46 47  2  0
 47 48  1  0
 48 49  2  0
 49 50  1  0
 49 51  1  0
 51 52  1  0
 52 53  1  0
 53 54  1  0
 54 55  1  0
 55 56  2  0
 56 57  1  0
 57 58  2  0
 58 59  1  0
 59 60  2  0
 53 61  1  0
 61 62  2  0
 61 63  1  0
 63 64  1  0
 64 65  1  0
 65 66  2  0
 66 67  1  0
 67 68  2  0
 68 69  1  0
 69 70  2  0
 69 71  1  0
 71 72  1  0
 72 73  1  0
 73 74  1  0
 74 75  1  0
 75 76  2  0
 76 77  1  0
 77 78  2  0
 78 79  1  0
 79 80  2  0
 67 81  1  0
 81 82  1  0
 82 83  1  0
 83 84  2  0
 83 85  1  0
 85 86  1  0
 86 87  1  0
 87 88  2  0
 88 89  1  0
 89 90  2  0
 90 91  1  0
 91 92  2  0
 85 93  1  0
 93 94  1  0
 47 95  1  0
 95 96  1  0
 96 97  1  0
 97 98  1  0
 98 99  1  0
 99100  2  0
100101  1  0
101102  2  0
102103  1  0
103104  2  0
 97105  1  0
105106  2  0
105107  1  0
107108  1  0
 73  2  1  0
 80 75  1  0
 92 87  1  0
104 99  1  0
 10  5  1  0
 22 17  1  0
 30 25  2  0
 40 35  1  0
 50 45  2  0
 60 55  1  0
 70 65  1  0
108  7  1  0
 94 27  1  0
  3109  1  0
  4110  1  0
  4111  1  0
  6112  1  0
  8113  1  0
 10114  1  0
 11115  1  0
 11116  1  0
 12117  1  0
 16118  1  0
 16119  1  0
 18120  1  0
 19121  1  0
 20122  1  0
 21123  1  0
 22124  1  0
 23125  1  0
 24126  1  0
 24127  1  0
 26128  1  0
 28129  1  0
 30130  1  0
 31131  1  0
 31132  1  0
 32133  1  0
 34134  1  0
 34135  1  0
 36136  1  0
 37137  1  0
 38138  1  0
 39139  1  0
 40140  1  0
 43141  1  0
 44142  1  0
 44143  1  0
 46144  1  0
 48145  1  0
 50146  1  0
 51147  1  0
 51148  1  0
 52149  1  0
 54150  1  0
 54151  1  0
 56152  1  0
 57153  1  0
 58154  1  0
 59155  1  0
 60156  1  0
 63157  1  0
 64158  1  0
 64159  1  0
 66160  1  0
 68161  1  0
 70162  1  0
 71163  1  0
 71164  1  0
 72165  1  0
 74166  1  0
 74167  1  0
 76168  1  0
 77169  1  0
 78170  1  0
 79171  1  0
 80172  1  0
 81173  1  0
 81174  1  0
 82175  1  0
 86176  1  0
 86177  1  0
 88178  1  0
 89179  1  0
 90180  1  0
 91181  1  0
 92182  1  0
 93183  1  0
 94184  1  0
 94185  1  0
 95186  1  0
 95187  1  0
 96188  1  0
 98189  1  0
 98190  1  0
100191  1  0
101192  1  0
102193  1  0
103194  1  0
104195  1  0
107196  1  0
108197  1  0
108198  1  0
M  END
