
     RDKit          3D

144150  0  0  0  0  0  0  0  0999 V2000
   -5.0920   -0.1586    1.7817 C   0  0  0  0  0  0  0  0  0  0  0  0
   -5.8944   -1.3340    1.7126 C   0  0  0  0  0  0  0  0  0  0  0  0
   -5.4689   -2.1037    2.8527 C   0  0  0  0  0  0  0  0  0  0  0  0
   -4.0757   -2.3923    2.6795 C   0  0  0  0  0  0  0  0  0  0  0  0
   -3.4786   -1.0959    2.6857 C   0  0  0  0  0  0  0  0  0  0  0  0
   -4.3567   -0.0017    3.0109 C   0  0  0  0  0  0  0  0  0  0  0  0
   -4.7646    0.5756    4.3587 C   0  0  0  0  0  0  0  0  0  0  0  0
   -4.1145    1.8547    4.6425 N   0  0  0  0  0  0  0  0  0  0  0  0
   -2.9095    1.6944    5.4162 C   0  0  0  0  0  0  0  0  0  0  0  0
   -1.3262    1.5668    4.2788 Se  0  0  0  0  0  2  0  0  0  0  0  0
    0.5549    0.9449    5.5728 Se  0  0  0  0  0  2  0  0  0  0  0  0
    1.8662   -0.0382    4.5549 C   0  0  0  0  0  0  0  0  0  0  0  0
    3.2301    0.2041    5.0211 N   0  0  0  0  0  0  0  0  0  0  0  0
    3.7706    1.3745    4.3142 C   0  0  0  0  0  0  0  0  0  0  0  0
    2.7566    2.4058    4.0410 C   0  0  0  0  0  0  0  0  0  0  0  0
    2.1345    2.7539    2.8078 C   0  0  0  0  0  0  0  0  0  0  0  0
    2.7887    3.7696    2.0581 C   0  0  0  0  0  0  0  0  0  0  0  0
    2.5115    4.8389    2.9509 C   0  0  0  0  0  0  0  0  0  0  0  0
    3.2359    4.7744    4.1745 C   0  0  0  0  0  0  0  0  0  0  0  0
    2.5443    3.6501    4.7055 C   0  0  0  0  0  0  0  0  0  0  0  0
    4.6001    5.2519    4.5365 C   0  0  0  0  0  0  0  0  0  0  0  0
    5.3606    5.9140    3.5016 N   0  0  0  0  0  0  0  0  0  0  0  0
    4.6808    7.1852    3.2523 C   0  0  0  0  0  0  0  0  0  0  0  0
    4.1717    7.4200    1.4088 Se  0  0  0  0  0  2  0  0  0  0  0  0
    2.1601    8.6749    1.1844 Se  0  0  0  0  0  2  0  0  0  0  0  0
    0.9731    7.8795   -0.1513 C   0  0  0  0  0  0  0  0  0  0  0  0
    1.3554    6.5157   -0.2519 N   0  0  0  0  0  0  0  0  0  0  0  0
    0.2916    5.5745   -0.4542 C   0  0  0  0  0  0  0  0  0  0  0  0
    0.1271    5.0755   -1.8576 C   0  0  0  0  0  0  0  0  0  0  0  0
   -1.0873    4.7606   -2.5360 C   0  0  0  0  0  0  0  0  0  0  0  0
   -1.6253    3.4573   -2.3487 C   0  0  0  0  0  0  0  0  0  0  0  0
   -0.5865    2.7453   -3.0079 C   0  0  0  0  0  0  0  0  0  0  0  0
    0.6867    2.7555   -2.3692 C   0  0  0  0  0  0  0  0  0  0  0  0
    0.9670    4.1433   -2.5355 C   0  0  0  0  0  0  0  0  0  0  0  0
    1.2302    1.8638   -1.2948 C   0  0  0  0  0  0  0  0  0  0  0  0
    0.6008    0.6310   -1.0314 N   0  0  0  0  0  0  0  0  0  0  0  0
    1.1664   -0.5201   -1.6756 C   0  0  0  0  0  0  0  0  0  0  0  0
    2.3906   -1.5061   -0.5563 Se  0  0  0  0  0  2  0  0  0  0  0  0
    1.3446   -3.3111    0.5599 Se  0  0  0  0  0  2  0  0  0  0  0  0
    1.4684   -4.9656   -0.4627 C   0  0  0  0  0  0  0  0  0  0  0  0
    1.2251   -4.6796   -1.8501 N   0  0  0  0  0  0  0  0  0  0  0  0
    2.4204   -5.0849   -2.5636 C   0  0  0  0  0  0  0  0  0  0  0  0
    2.4083   -5.1130   -4.0436 C   0  0  0  0  0  0  0  0  0  0  0  0
    1.2921   -5.2535   -4.9187 C   0  0  0  0  0  0  0  0  0  0  0  0
    0.6398   -4.0590   -5.3378 C   0  0  0  0  0  0  0  0  0  0  0  0
    1.7271   -3.5354   -6.0874 C   0  0  0  0  0  0  0  0  0  0  0  0
    2.8923   -3.1476   -5.3522 C   0  0  0  0  0  0  0  0  0  0  0  0
    3.2863   -4.4584   -4.9582 C   0  0  0  0  0  0  0  0  0  0  0  0
    3.2152   -1.8555   -4.6981 C   0  0  0  0  0  0  0  0  0  0  0  0
    4.3151   -1.1360   -5.3427 N   0  0  0  0  0  0  0  0  0  0  0  0
    5.3514   -0.7770   -4.3867 C   0  0  0  0  0  0  0  0  0  0  0  0
    4.9604    0.8798   -3.4707 Se  0  0  0  0  0  2  0  0  0  0  0  0
    5.4002    0.7240   -1.1323 Se  0  0  0  0  0  2  0  0  0  0  0  0
    5.3178    2.4664   -0.3158 C   0  0  0  0  0  0  0  0  0  0  0  0
    4.6581    2.4808    0.9613 N   0  0  0  0  0  0  0  0  0  0  0  0
    3.8209    3.6447    1.0090 C   0  0  0  0  0  0  0  0  0  0  0  0
   -0.4353   -3.3015   -4.6234 C   0  0  0  0  0  0  0  0  0  0  0  0
   -1.5880   -4.0272   -4.2118 N   0  0  0  0  0  0  0  0  0  0  0  0
   -2.7371   -3.9517   -5.0483 C   0  0  0  0  0  0  0  0  0  0  0  0
   -4.2413   -4.6674   -4.0256 Se  0  0  0  0  0  2  0  0  0  0  0  0
   -5.7141   -2.9612   -3.3102 Se  0  0  0  0  0  2  0  0  0  0  0  0
   -6.2972   -3.1916   -1.4881 C   0  0  0  0  0  0  0  0  0  0  0  0
   -5.8600   -2.1142   -0.6884 N   0  0  0  0  0  0  0  0  0  0  0  0
   -6.6016   -1.8455    0.5160 C   0  0  0  0  0  0  0  0  0  0  0  0
   -2.5454    3.0130   -1.2579 C   0  0  0  0  0  0  0  0  0  0  0  0
   -2.8969    1.6422   -1.1633 N   0  0  0  0  0  0  0  0  0  0  0  0
   -3.2816    0.9984   -2.3773 C   0  0  0  0  0  0  0  0  0  0  0  0
   -2.7075   -0.8703   -2.3884 Se  0  0  0  0  0  2  0  0  0  0  0  0
   -2.1980   -1.6621   -0.2431 Se  0  0  0  0  0  2  0  0  0  0  0  0
   -2.5048   -3.5365    0.0201 C   0  0  0  0  0  0  0  0  0  0  0  0
   -2.4121   -3.8385    1.3926 N   0  0  0  0  0  0  0  0  0  0  0  0
   -3.5319   -3.6722    2.2287 C   0  0  0  0  0  0  0  0  0  0  0  0
   -5.1877    0.7432    1.1393 H   0  0  0  0  0  0  0  0  0  0  0  0
   -6.0923   -2.3533    3.7249 H   0  0  0  0  0  0  0  0  0  0  0  0
   -2.3871   -0.8982    2.7358 H   0  0  0  0  0  0  0  0  0  0  0  0
   -5.8283    0.7784    4.5162 H   0  0  0  0  0  0  0  0  0  0  0  0
   -4.5826   -0.0373    5.2467 H   0  0  0  0  0  0  0  0  0  0  0  0
   -3.8908    2.2955    3.7263 H   0  0  0  0  0  0  0  0  0  0  0  0
   -2.9802    0.7926    6.0447 H   0  0  0  0  0  0  0  0  0  0  0  0
   -2.7980    2.6258    6.0270 H   0  0  0  0  0  0  0  0  0  0  0  0
    1.7773    0.1089    3.4603 H   0  0  0  0  0  0  0  0  0  0  0  0
    1.6628   -1.1263    4.7227 H   0  0  0  0  0  0  0  0  0  0  0  0
    3.1352    0.4102    6.0508 H   0  0  0  0  0  0  0  0  0  0  0  0
    4.6694    1.6305    4.9311 H   0  0  0  0  0  0  0  0  0  0  0  0
    4.3245    0.8962    3.4859 H   0  0  0  0  0  0  0  0  0  0  0  0
    1.2533    2.2017    2.4190 H   0  0  0  0  0  0  0  0  0  0  0  0
    1.9062    5.7234    2.6688 H   0  0  0  0  0  0  0  0  0  0  0  0
    1.9436    3.7180    5.6383 H   0  0  0  0  0  0  0  0  0  0  0  0
    5.3472    4.5414    4.9101 H   0  0  0  0  0  0  0  0  0  0  0  0
    4.5810    6.0674    5.3092 H   0  0  0  0  0  0  0  0  0  0  0  0
    6.2781    6.1559    3.8942 H   0  0  0  0  0  0  0  0  0  0  0  0
    5.3294    8.0571    3.5214 H   0  0  0  0  0  0  0  0  0  0  0  0
    3.7677    7.3018    3.8654 H   0  0  0  0  0  0  0  0  0  0  0  0
   -0.0498    7.9218    0.2959 H   0  0  0  0  0  0  0  0  0  0  0  0
    0.9781    8.4421   -1.0954 H   0  0  0  0  0  0  0  0  0  0  0  0
    2.1541    6.4178   -0.8997 H   0  0  0  0  0  0  0  0  0  0  0  0
    0.4046    4.7978    0.3449 H   0  0  0  0  0  0  0  0  0  0  0  0
   -0.5367    6.1389   -0.0065 H   0  0  0  0  0  0  0  0  0  0  0  0
   -1.6123    5.5362   -3.1369 H   0  0  0  0  0  0  0  0  0  0  0  0
   -0.7685    2.1431   -3.9220 H   0  0  0  0  0  0  0  0  0  0  0  0
    1.8354    4.4905   -3.1383 H   0  0  0  0  0  0  0  0  0  0  0  0
    1.2989    2.2805   -0.2647 H   0  0  0  0  0  0  0  0  0  0  0  0
    2.2727    1.4974   -1.4996 H   0  0  0  0  0  0  0  0  0  0  0  0
    0.1892    0.4667   -0.1090 H   0  0  0  0  0  0  0  0  0  0  0  0
    0.3411   -1.1909   -1.9500 H   0  0  0  0  0  0  0  0  0  0  0  0
    1.7122   -0.1290   -2.5714 H   0  0  0  0  0  0  0  0  0  0  0  0
    2.4106   -5.5076   -0.2742 H   0  0  0  0  0  0  0  0  0  0  0  0
    0.6269   -5.6115   -0.1044 H   0  0  0  0  0  0  0  0  0  0  0  0
    0.4124   -5.2016   -2.2281 H   0  0  0  0  0  0  0  0  0  0  0  0
    2.6953   -6.0700   -2.1019 H   0  0  0  0  0  0  0  0  0  0  0  0
    3.1091   -4.3976   -2.0356 H   0  0  0  0  0  0  0  0  0  0  0  0
    0.9096   -6.2557   -5.2116 H   0  0  0  0  0  0  0  0  0  0  0  0
    1.6506   -3.3325   -7.1771 H   0  0  0  0  0  0  0  0  0  0  0  0
    4.2568   -4.9038   -5.2580 H   0  0  0  0  0  0  0  0  0  0  0  0
    2.4295   -1.0665   -4.6551 H   0  0  0  0  0  0  0  0  0  0  0  0
    3.4685   -1.8382   -3.6126 H   0  0  0  0  0  0  0  0  0  0  0  0
    4.7348   -1.7874   -6.0269 H   0  0  0  0  0  0  0  0  0  0  0  0
    5.4484   -1.6143   -3.6504 H   0  0  0  0  0  0  0  0  0  0  0  0
    6.3387   -0.7472   -4.9134 H   0  0  0  0  0  0  0  0  0  0  0  0
    6.3400    2.8788   -0.1906 H   0  0  0  0  0  0  0  0  0  0  0  0
    4.8083    3.1513   -1.0399 H   0  0  0  0  0  0  0  0  0  0  0  0
    5.3341    2.3990    1.7392 H   0  0  0  0  0  0  0  0  0  0  0  0
    3.4106    3.7440   -0.0320 H   0  0  0  0  0  0  0  0  0  0  0  0
    4.6501    4.3925    0.9758 H   0  0  0  0  0  0  0  0  0  0  0  0
   -0.9551   -2.5161   -5.2182 H   0  0  0  0  0  0  0  0  0  0  0  0
   -0.1360   -2.7301   -3.7177 H   0  0  0  0  0  0  0  0  0  0  0  0
   -1.7716   -4.0474   -3.1950 H   0  0  0  0  0  0  0  0  0  0  0  0
   -2.9618   -2.8995   -5.3170 H   0  0  0  0  0  0  0  0  0  0  0  0
   -2.5948   -4.5107   -5.9860 H   0  0  0  0  0  0  0  0  0  0  0  0
   -5.8313   -4.1329   -1.1023 H   0  0  0  0  0  0  0  0  0  0  0  0
   -7.3831   -3.3214   -1.3774 H   0  0  0  0  0  0  0  0  0  0  0  0
   -5.6150   -1.2718   -1.2368 H   0  0  0  0  0  0  0  0  0  0  0  0
   -7.6068   -1.3741    0.3150 H   0  0  0  0  0  0  0  0  0  0  0  0
   -7.0466   -2.8773    0.6054 H   0  0  0  0  0  0  0  0  0  0  0  0
   -3.5882    3.4191   -1.3314 H   0  0  0  0  0  0  0  0  0  0  0  0
   -2.2347    3.2177   -0.2146 H   0  0  0  0  0  0  0  0  0  0  0  0
   -2.3600    1.0696   -0.4982 H   0  0  0  0  0  0  0  0  0  0  0  0
   -4.4009    0.9589   -2.3898 H   0  0  0  0  0  0  0  0  0  0  0  0
   -2.9946    1.5266   -3.2977 H   0  0  0  0  0  0  0  0  0  0  0  0
   -3.4399   -3.9221   -0.4019 H   0  0  0  0  0  0  0  0  0  0  0  0
   -1.6828   -4.0817   -0.5114 H   0  0  0  0  0  0  0  0  0  0  0  0
   -1.4813   -3.7119    1.8250 H   0  0  0  0  0  0  0  0  0  0  0  0
   -4.1783   -4.3540    1.6063 H   0  0  0  0  0  0  0  0  0  0  0  0
   -3.2591   -4.3868    3.0634 H   0  0  0  0  0  0  0  0  0  0  0  0
  1  2  2  0
  2  3  1  0
  3  4  2  0
  4  5  1  0
  5  6  2  0
  6  7  1  0
  7  8  1  0
  8  9  1  0
  9 10  1  0
 10 11  1  0
 11 12  1  0
 12 13  1  0
 13 14  1  0
 14 15  1  0
 15 16  1  0
 16 17  2  0
 17 18  1  0
 18 19  2  0
 19 20  1  0
 19 21  1  0
 21 22  1  0
 22 23  1  0
 23 24  1  0
 24 25  1  0
 25 26  1  0
 26 27  1  0
 27 28  1  0
 28 29  1  0
 29 30  1  0
 30 31  2  0
 31 32  1  0
 32 33  2  0
 33 34  1  0
 33 35  1  0
 35 36  1  0
 36 37  1  0
 37 38  1  0
 38 39  1  0
 39 40  1  0
 40 41  1  0
 41 42  1  0
 42 43  1  0
 43 44  1  0
 44 45  2  0
 45 46  1  0
 46 47  2  0
 47 48  1  0
 47 49  1  0
 49 50  1  0
 50 51  1  0
 51 52  1  0
 52 53  1  0
 53 54  1  0
 54 55  1  0
 55 56  1  0
 45 57  1  0
 57 58  1  0
 58 59  1  0
 59 60  1  0
 60 61  1  0
 61 62  1  0
 62 63  1  0
 63 64  1  0
 31 65  1  0
 65 66  1  0
 66 67  1  0
 67 68  1  0
 68 69  1  0
 69 70  1  0
 70 71  1  0
 71 72  1  0
  6  1  1  0
 20 15  2  0
 34 29  2  0
 48 43  2  0
 64  2  1  0
 72  4  1  0
 56 17  1  0
  1 73  1  0
  3 74  1  0
  5 75  1  0
  7 76  1  0
  7 77  1  0
  8 78  1  0
  9 79  1  0
  9 80  1  0
 12 81  1  0
 12 82  1  0
 13 83  1  0
 14 84  1  0
 14 85  1  0
 16 86  1  0
 18 87  1  0
 20 88  1  0
 21 89  1  0
 21 90  1  0
 22 91  1  0
 23 92  1  0
 23 93  1  0
 26 94  1  0
 26 95  1  0
 27 96  1  0
 28 97  1  0
 28 98  1  0
 30 99  1  0
 32100  1  0
 34101  1  0
 35102  1  0
 35103  1  0
 36104  1  0
 37105  1  0
 37106  1  0
 40107  1  0
 40108  1  0
 41109  1  0
 42110  1  0
 42111  1  0
 44112  1  0
 46113  1  0
 48114  1  0
 49115  1  0
 49116  1  0
 50117  1  0
 51118  1  0
 51119  1  0
 54120  1  0
 54121  1  0
 55122  1  0
 56123  1  0
 56124  1  0
 57125  1  0
 57126  1  0
 58127  1  0
 59128  1  0
 59129  1  0
 62130  1  0
 62131  1  0
 63132  1  0
 64133  1  0
 64134  1  0
 65135  1  0
 65136  1  0
 66137  1  0
 67138  1  0
 67139  1  0
 70140  1  0
 70141  1  0
 71142  1  0
 72143  1  0
 72144  1  0
M  END
