
     RDKit          3D

204222  0  0  0  0  0  0  0  0999 V2000
   -1.3589    6.5086   -4.0770 O   0  0  0  0  0  0  0  0  0  0  0  0
   -1.7265    7.3234   -3.5867 C   0  0  0  0  0  0  0  0  0  0  0  0
   -3.0229    6.7421   -3.3860 N   0  0  0  0  0  0  0  0  0  0  0  0
   -4.1499    6.1097   -2.7348 C   0  0  0  0  0  0  0  0  0  0  0  0
   -4.3108    4.6562   -3.1678 C   0  0  0  0  0  0  0  0  0  0  0  0
   -5.1950    4.0605   -4.1200 C   0  0  0  0  0  0  0  0  0  0  0  0
   -5.6305    2.7605   -3.7234 C   0  0  0  0  0  0  0  0  0  0  0  0
   -4.4707    1.9957   -4.0576 C   0  0  0  0  0  0  0  0  0  0  0  0
   -3.2074    2.5915   -3.7507 C   0  0  0  0  0  0  0  0  0  0  0  0
   -3.5593    3.5252   -2.7243 C   0  0  0  0  0  0  0  0  0  0  0  0
   -1.9163    2.5063   -4.5622 C   0  0  0  0  0  0  0  0  0  0  0  0
   -1.3835    1.1405   -4.5391 N   0  0  0  0  0  0  0  0  0  0  0  0
   -0.8205   -0.1581   -4.6506 C   0  0  0  0  0  0  0  0  0  0  0  0
   -1.8301   -0.8271   -4.3899 O   0  0  0  0  0  0  0  0  0  0  0  0
   -0.2253   -1.4616   -4.8015 N   0  0  0  0  0  0  0  0  0  0  0  0
   -1.4174   -1.6790   -5.4449 C   0  0  0  0  0  0  0  0  0  0  0  0
   -0.7956   -2.5106   -6.6025 C   0  0  0  0  0  0  0  0  0  0  0  0
    0.0922   -3.3333   -5.7189 C   0  0  0  0  0  0  0  0  0  0  0  0
   -0.3553   -4.0903   -4.6384 C   0  0  0  0  0  0  0  0  0  0  0  0
    0.5339   -4.3472   -3.5475 C   0  0  0  0  0  0  0  0  0  0  0  0
    1.8597   -4.1150   -4.0179 C   0  0  0  0  0  0  0  0  0  0  0  0
    2.0362   -2.8915   -4.6629 C   0  0  0  0  0  0  0  0  0  0  0  0
    0.8859   -2.2928   -5.1949 C   0  0  0  0  0  0  0  0  0  0  0  0
    0.1137   -4.3555   -2.1341 N   0  0  0  0  0  0  0  0  0  0  0  0
   -0.2297   -4.2727   -0.7160 C   0  0  0  0  0  0  0  0  0  0  0  0
    0.9591   -4.6437    0.1727 C   0  0  0  0  0  0  0  0  0  0  0  0
    1.1546   -4.2157    1.5190 C   0  0  0  0  0  0  0  0  0  0  0  0
    1.9840   -3.0606    1.6487 C   0  0  0  0  0  0  0  0  0  0  0  0
    2.8819   -3.2355    0.5516 C   0  0  0  0  0  0  0  0  0  0  0  0
    3.3611   -4.5802    0.4528 C   0  0  0  0  0  0  0  0  0  0  0  0
    2.2296   -5.2362   -0.1158 C   0  0  0  0  0  0  0  0  0  0  0  0
    4.6227   -5.1792    1.0696 C   0  0  0  0  0  0  0  0  0  0  0  0
    4.3504   -6.3835    1.8532 N   0  0  0  0  0  0  0  0  0  0  0  0
    4.0083   -7.5286    2.7065 C   0  0  0  0  0  0  0  0  0  0  0  0
    4.7622   -7.9170    3.8515 C   0  0  0  0  0  0  0  0  0  0  0  0
    4.1307   -7.7294    5.0783 C   0  0  0  0  0  0  0  0  0  0  0  0
    2.7358   -7.8340    5.0342 C   0  0  0  0  0  0  0  0  0  0  0  0
    2.3660   -8.7298    4.0141 C   0  0  0  0  0  0  0  0  0  0  0  0
    2.7109   -8.1236    2.8098 C   0  0  0  0  0  0  0  0  0  0  0  0
    1.0046   -9.1740    4.4556 C   0  0  0  0  0  0  0  0  0  0  0  0
    0.4905   -8.0507    5.3886 C   0  0  0  0  0  0  0  0  0  0  0  0
    1.4598   -7.1457    4.9107 N   0  0  0  0  0  0  0  0  0  0  0  0
    0.4161   -6.1777    5.1374 C   0  0  0  0  0  0  0  0  0  0  0  0
    0.1450   -6.8863    6.1276 O   0  0  0  0  0  0  0  0  0  0  0  0
   -0.3877   -5.1022    5.6484 N   0  0  0  0  0  0  0  0  0  0  0  0
   -1.1993   -4.0112    6.1964 C   0  0  0  0  0  0  0  0  0  0  0  0
   -2.0359   -3.3583    5.0935 C   0  0  0  0  0  0  0  0  0  0  0  0
   -2.2420   -1.9662    4.8467 C   0  0  0  0  0  0  0  0  0  0  0  0
   -3.3927   -1.4129    5.4903 C   0  0  0  0  0  0  0  0  0  0  0  0
   -4.3409   -2.4683    5.3368 C   0  0  0  0  0  0  0  0  0  0  0  0
   -4.2355   -3.1460    4.0811 C   0  0  0  0  0  0  0  0  0  0  0  0
   -3.0745   -3.9477    4.3090 C   0  0  0  0  0  0  0  0  0  0  0  0
   -4.9457   -2.8485    2.7579 C   0  0  0  0  0  0  0  0  0  0  0  0
   -4.0416   -2.2907    1.7560 N   0  0  0  0  0  0  0  0  0  0  0  0
   -3.0658   -1.6441    0.8521 C   0  0  0  0  0  0  0  0  0  0  0  0
   -3.3875   -1.1343   -0.4404 C   0  0  0  0  0  0  0  0  0  0  0  0
   -3.1316    0.2090   -0.7114 C   0  0  0  0  0  0  0  0  0  0  0  0
   -1.9823    0.7706   -0.1384 C   0  0  0  0  0  0  0  0  0  0  0  0
   -1.8641    0.3564    1.2048 C   0  0  0  0  0  0  0  0  0  0  0  0
   -1.8056   -1.0387    1.1580 C   0  0  0  0  0  0  0  0  0  0  0  0
   -0.8472    1.3266    1.7242 C   0  0  0  0  0  0  0  0  0  0  0  0
   -0.0088    1.7597    0.4974 C   0  0  0  0  0  0  0  0  0  0  0  0
   -0.5341    0.7338   -0.2928 N   0  0  0  0  0  0  0  0  0  0  0  0
    0.8340    0.7168   -0.7356 C   0  0  0  0  0  0  0  0  0  0  0  0
    0.7284    1.9493   -0.7072 O   0  0  0  0  0  0  0  0  0  0  0  0
    1.9687    0.6138   -1.5744 N   0  0  0  0  0  0  0  0  0  0  0  0
    2.7607    0.3781   -2.7438 C   0  0  0  0  0  0  0  0  0  0  0  0
    3.7755    1.4945   -3.0209 C   0  0  0  0  0  0  0  0  0  0  0  0
    5.1497    1.3973   -3.4123 C   0  0  0  0  0  0  0  0  0  0  0  0
    6.1223    1.7898   -2.4396 C   0  0  0  0  0  0  0  0  0  0  0  0
    5.7912    3.1694   -2.2830 C   0  0  0  0  0  0  0  0  0  0  0  0
    4.4673    3.4713   -1.8291 C   0  0  0  0  0  0  0  0  0  0  0  0
    3.6670    2.9089   -2.8707 C   0  0  0  0  0  0  0  0  0  0  0  0
    3.9833    4.0148   -0.4758 C   0  0  0  0  0  0  0  0  0  0  0  0
    3.0525    5.1311   -0.6768 N   0  0  0  0  0  0  0  0  0  0  0  0
    1.9812    6.0342   -1.1593 C   0  0  0  0  0  0  0  0  0  0  0  0
    2.0474    7.4563   -1.0669 C   0  0  0  0  0  0  0  0  0  0  0  0
    1.9700    8.2162   -2.2359 C   0  0  0  0  0  0  0  0  0  0  0  0
    1.1093    7.7337   -3.2366 C   0  0  0  0  0  0  0  0  0  0  0  0
    1.3327    6.3417   -3.3845 C   0  0  0  0  0  0  0  0  0  0  0  0
    0.9753    5.7945   -2.1476 C   0  0  0  0  0  0  0  0  0  0  0  0
    0.7124    5.9289   -4.6908 C   0  0  0  0  0  0  0  0  0  0  0  0
   -0.3821    6.9886   -4.7499 C   0  0  0  0  0  0  0  0  0  0  0  0
   -0.3212    7.6180   -3.5119 N   0  0  0  0  0  0  0  0  0  0  0  0
    7.1583    0.9197   -1.7143 C   0  0  0  0  0  0  0  0  0  0  0  0
    7.3503    1.2645   -0.3581 N   0  0  0  0  0  0  0  0  0  0  0  0
    7.6106    1.4130    1.0198 C   0  0  0  0  0  0  0  0  0  0  0  0
    7.6345    2.6175    1.1168 O   0  0  0  0  0  0  0  0  0  0  0  0
    7.3812    1.4094    2.4505 N   0  0  0  0  0  0  0  0  0  0  0  0
    6.7712    2.6288    2.2413 C   0  0  0  0  0  0  0  0  0  0  0  0
    5.9173    2.6323    3.5385 C   0  0  0  0  0  0  0  0  0  0  0  0
    5.5484    1.1818    3.5022 C   0  0  0  0  0  0  0  0  0  0  0  0
    4.9520    0.4745    2.4537 C   0  0  0  0  0  0  0  0  0  0  0  0
    4.5846   -0.8375    2.8903 C   0  0  0  0  0  0  0  0  0  0  0  0
    5.8140   -1.4454    3.2852 C   0  0  0  0  0  0  0  0  0  0  0  0
    6.7060   -0.6676    4.0298 C   0  0  0  0  0  0  0  0  0  0  0  0
    6.8666    0.6648    3.5949 C   0  0  0  0  0  0  0  0  0  0  0  0
    3.2455   -1.4493    3.0255 N   0  0  0  0  0  0  0  0  0  0  0  0
    1.9083   -1.9342    2.6735 C   0  0  0  0  0  0  0  0  0  0  0  0
   -3.5507   -0.0686    6.1862 C   0  0  0  0  0  0  0  0  0  0  0  0
   -3.9737    0.9424    5.2129 N   0  0  0  0  0  0  0  0  0  0  0  0
   -4.6383    2.0459    4.5164 C   0  0  0  0  0  0  0  0  0  0  0  0
   -4.0473    3.3346    4.3574 C   0  0  0  0  0  0  0  0  0  0  0  0
   -4.0995    3.8105    3.0487 C   0  0  0  0  0  0  0  0  0  0  0  0
   -5.3036    3.5821    2.3699 C   0  0  0  0  0  0  0  0  0  0  0  0
   -6.2876    3.2666    3.3346 C   0  0  0  0  0  0  0  0  0  0  0  0
   -5.9169    2.0405    3.8741 C   0  0  0  0  0  0  0  0  0  0  0  0
   -7.4954    3.5604    2.4954 C   0  0  0  0  0  0  0  0  0  0  0  0
   -7.1986    2.4591    1.4392 C   0  0  0  0  0  0  0  0  0  0  0  0
   -5.8564    2.7424    1.3373 N   0  0  0  0  0  0  0  0  0  0  0  0
   -6.1776    2.5410   -0.0534 C   0  0  0  0  0  0  0  0  0  0  0  0
   -6.8036    1.5725    0.4059 O   0  0  0  0  0  0  0  0  0  0  0  0
   -6.4888    2.3467   -1.4344 N   0  0  0  0  0  0  0  0  0  0  0  0
   -6.8221    2.3770   -2.8267 C   0  0  0  0  0  0  0  0  0  0  0  0
   -2.7571    5.9313   -4.0051 H   0  0  0  0  0  0  0  0  0  0  0  0
   -4.1260    6.2242   -1.6212 H   0  0  0  0  0  0  0  0  0  0  0  0
   -5.0115    6.7359   -2.9884 H   0  0  0  0  0  0  0  0  0  0  0  0
   -5.6357    4.5906   -4.9661 H   0  0  0  0  0  0  0  0  0  0  0  0
   -4.5556    0.9672   -4.4237 H   0  0  0  0  0  0  0  0  0  0  0  0
   -3.2671    3.3597   -1.6822 H   0  0  0  0  0  0  0  0  0  0  0  0
   -2.0034    2.9136   -5.5747 H   0  0  0  0  0  0  0  0  0  0  0  0
   -1.0894    3.0586   -4.1097 H   0  0  0  0  0  0  0  0  0  0  0  0
   -2.3081    0.7736   -4.2001 H   0  0  0  0  0  0  0  0  0  0  0  0
   -1.8599   -0.9717   -6.1848 H   0  0  0  0  0  0  0  0  0  0  0  0
   -2.1085   -2.4975   -5.1162 H   0  0  0  0  0  0  0  0  0  0  0  0
   -0.1205   -1.8969   -7.2137 H   0  0  0  0  0  0  0  0  0  0  0  0
   -1.5331   -3.0854   -7.1495 H   0  0  0  0  0  0  0  0  0  0  0  0
   -1.0497   -4.8621   -5.0000 H   0  0  0  0  0  0  0  0  0  0  0  0
    2.6218   -4.8608   -4.1047 H   0  0  0  0  0  0  0  0  0  0  0  0
    3.0072   -2.4323   -4.6701 H   0  0  0  0  0  0  0  0  0  0  0  0
    0.1135   -5.4083   -2.0474 H   0  0  0  0  0  0  0  0  0  0  0  0
   -0.5616   -3.2411   -0.6380 H   0  0  0  0  0  0  0  0  0  0  0  0
   -1.0480   -5.0287   -0.5998 H   0  0  0  0  0  0  0  0  0  0  0  0
    0.6844   -4.7281    2.3636 H   0  0  0  0  0  0  0  0  0  0  0  0
    3.2520   -2.4296   -0.0804 H   0  0  0  0  0  0  0  0  0  0  0  0
    2.3222   -6.0844   -0.7993 H   0  0  0  0  0  0  0  0  0  0  0  0
    5.3875   -5.3889    0.3087 H   0  0  0  0  0  0  0  0  0  0  0  0
    5.1045   -4.5449    1.8101 H   0  0  0  0  0  0  0  0  0  0  0  0
    4.7338   -6.9700    1.0624 H   0  0  0  0  0  0  0  0  0  0  0  0
    5.6529   -8.5216    3.8287 H   0  0  0  0  0  0  0  0  0  0  0  0
    4.6980   -7.5801    5.9702 H   0  0  0  0  0  0  0  0  0  0  0  0
    2.3017   -8.7190    1.9794 H   0  0  0  0  0  0  0  0  0  0  0  0
    1.1092  -10.1400    4.9403 H   0  0  0  0  0  0  0  0  0  0  0  0
    0.4003   -9.3227    3.5583 H   0  0  0  0  0  0  0  0  0  0  0  0
    0.6885   -8.5914    6.3491 H   0  0  0  0  0  0  0  0  0  0  0  0
   -0.5336   -8.0822    5.0143 H   0  0  0  0  0  0  0  0  0  0  0  0
   -1.1215   -5.7945    5.9556 H   0  0  0  0  0  0  0  0  0  0  0  0
   -1.7901   -4.3204    7.0667 H   0  0  0  0  0  0  0  0  0  0  0  0
   -0.4289   -3.3487    6.5915 H   0  0  0  0  0  0  0  0  0  0  0  0
   -1.5334   -1.3762    4.2584 H   0  0  0  0  0  0  0  0  0  0  0  0
   -5.1489   -2.6818    6.0402 H   0  0  0  0  0  0  0  0  0  0  0  0
   -2.9737   -4.9466    3.8717 H   0  0  0  0  0  0  0  0  0  0  0  0
   -5.7410   -2.1266    2.8407 H   0  0  0  0  0  0  0  0  0  0  0  0
   -5.4131   -3.7489    2.3213 H   0  0  0  0  0  0  0  0  0  0  0  0
   -3.6891   -3.2686    1.5694 H   0  0  0  0  0  0  0  0  0  0  0  0
   -3.5492   -1.7648   -1.3186 H   0  0  0  0  0  0  0  0  0  0  0  0
   -3.8398    0.7418   -1.2988 H   0  0  0  0  0  0  0  0  0  0  0  0
   -0.9799   -1.6042    1.5982 H   0  0  0  0  0  0  0  0  0  0  0  0
   -0.2864    0.7911    2.4911 H   0  0  0  0  0  0  0  0  0  0  0  0
   -1.3640    2.1465    2.2153 H   0  0  0  0  0  0  0  0  0  0  0  0
   -0.4365    2.7915    0.4032 H   0  0  0  0  0  0  0  0  0  0  0  0
    0.9525    1.6894    1.0216 H   0  0  0  0  0  0  0  0  0  0  0  0
    2.2213    1.5984   -1.4002 H   0  0  0  0  0  0  0  0  0  0  0  0
    2.1506    0.1839   -3.6651 H   0  0  0  0  0  0  0  0  0  0  0  0
    3.2384   -0.5833   -2.5291 H   0  0  0  0  0  0  0  0  0  0  0  0
    5.4419    0.9816   -4.3871 H   0  0  0  0  0  0  0  0  0  0  0  0
    6.5248    3.9669   -2.4645 H   0  0  0  0  0  0  0  0  0  0  0  0
    2.9697    3.5129   -3.4640 H   0  0  0  0  0  0  0  0  0  0  0  0
    3.5731    3.2384    0.1744 H   0  0  0  0  0  0  0  0  0  0  0  0
    4.7744    4.4995    0.0935 H   0  0  0  0  0  0  0  0  0  0  0  0
    2.5289    4.8340    0.1885 H   0  0  0  0  0  0  0  0  0  0  0  0
    1.8695    8.0076   -0.1393 H   0  0  0  0  0  0  0  0  0  0  0  0
    2.4268    9.2011   -2.2899 H   0  0  0  0  0  0  0  0  0  0  0  0
    0.2153    5.0172   -2.0414 H   0  0  0  0  0  0  0  0  0  0  0  0
    1.4140    5.9583   -5.5251 H   0  0  0  0  0  0  0  0  0  0  0  0
    0.2918    4.9160   -4.6557 H   0  0  0  0  0  0  0  0  0  0  0  0
   -1.1064    6.9388   -5.4986 H   0  0  0  0  0  0  0  0  0  0  0  0
    0.2223    7.7902   -5.3031 H   0  0  0  0  0  0  0  0  0  0  0  0
    6.9080   -0.1402   -1.7232 H   0  0  0  0  0  0  0  0  0  0  0  0
    8.1501    0.9948   -2.2306 H   0  0  0  0  0  0  0  0  0  0  0  0
    7.4027    2.3021   -0.5193 H   0  0  0  0  0  0  0  0  0  0  0  0
    5.8709    2.6873    1.5747 H   0  0  0  0  0  0  0  0  0  0  0  0
    7.2127    3.6023    2.5276 H   0  0  0  0  0  0  0  0  0  0  0  0
    5.0781    3.3103    3.5067 H   0  0  0  0  0  0  0  0  0  0  0  0
    6.5340    2.7595    4.4362 H   0  0  0  0  0  0  0  0  0  0  0  0
    4.5543    0.9545    1.5668 H   0  0  0  0  0  0  0  0  0  0  0  0
    6.2124   -2.3637    2.8472 H   0  0  0  0  0  0  0  0  0  0  0  0
    7.4503   -1.1528    4.6655 H   0  0  0  0  0  0  0  0  0  0  0  0
    3.0054   -1.0764    3.9370 H   0  0  0  0  0  0  0  0  0  0  0  0
    1.2979   -1.0908    2.3298 H   0  0  0  0  0  0  0  0  0  0  0  0
    1.5352   -2.2438    3.6477 H   0  0  0  0  0  0  0  0  0  0  0  0
   -4.2423   -0.0837    7.0337 H   0  0  0  0  0  0  0  0  0  0  0  0
   -2.6318    0.3130    6.6376 H   0  0  0  0  0  0  0  0  0  0  0  0
   -3.5492    0.4833    4.4014 H   0  0  0  0  0  0  0  0  0  0  0  0
   -3.8746    4.0420    5.1710 H   0  0  0  0  0  0  0  0  0  0  0  0
   -3.4044    4.5995    2.7561 H   0  0  0  0  0  0  0  0  0  0  0  0
   -6.7930    1.5563    4.3239 H   0  0  0  0  0  0  0  0  0  0  0  0
   -8.4372    3.4079    3.0080 H   0  0  0  0  0  0  0  0  0  0  0  0
   -7.3399    4.5642    2.0853 H   0  0  0  0  0  0  0  0  0  0  0  0
   -7.9721    2.8911    0.7653 H   0  0  0  0  0  0  0  0  0  0  0  0
   -7.5602    1.6197    2.0868 H   0  0  0  0  0  0  0  0  0  0  0  0
   -7.1412    1.5620   -1.2410 H   0  0  0  0  0  0  0  0  0  0  0  0
   -7.2603    1.4022   -3.1517 H   0  0  0  0  0  0  0  0  0  0  0  0
   -7.6650    3.0516   -2.9662 H   0  0  0  0  0  0  0  0  0  0  0  0
  1  2  2  0
  2  3  1  0
  3  4  1  0
  4  5  1  0
  5  6  1  0
  6  7  2  0
  7  8  1  0
  8  9  2  0
  9 10  1  0
  9 11  1  0
 11 12  1  0
 12 13  1  0
 13 14  2  0
 13 15  1  0
 15 16  1  0
 16 17  1  0
 17 18  1  0
 18 19  2  0
 19 20  1  0
 20 21  2  0
 21 22  1  0
 22 23  2  0
 20 24  1  0
 24 25  1  0
 25 26  1  0
 26 27  2  0
 27 28  1  0
 28 29  2  0
 29 30  1  0
 30 31  2  0
 30 32  1  0
 32 33  1  0
 33 34  1  0
 34 35  2  0
 35 36  1  0
 36 37  2  0
 37 38  1  0
 38 39  2  0
 38 40  1  0
 40 41  1  0
 41 42  1  0
 42 43  1  0
 43 44  2  0
 43 45  1  0
 45 46  1  0
 46 47  1  0
 47 48  2  0
 48 49  1  0
 49 50  2  0
 50 51  1  0
 51 52  2  0
 51 53  1  0
 53 54  1  0
 54 55  1  0
 55 56  2  0
 56 57  1  0
 57 58  2  0
 58 59  1  0
 59 60  2  0
 59 61  1  0
 61 62  1  0
 62 63  1  0
 63 64  1  0
 64 65  2  0
 64 66  1  0
 66 67  1  0
 67 68  1  0
 68 69  1  0
 69 70  2  0
 70 71  1  0
 71 72  2  0
 72 73  1  0
 72 74  1  0
 74 75  1  0
 75 76  1  0
 76 77  2  0
 77 78  1  0
 78 79  2  0
 79 80  1  0
 80 81  2  0
 80 82  1  0
 82 83  1  0
 83 84  1  0
 70 85  1  0
 85 86  1  0
 86 87  1  0
 87 88  2  0
 87 89  1  0
 89 90  1  0
 90 91  1  0
 91 92  1  0
 92 93  2  0
 93 94  1  0
 94 95  2  0
 95 96  1  0
 96 97  2  0
 94 98  1  0
 98 99  1  0
 49100  1  0
100101  1  0
101102  1  0
102103  1  0
103104  2  0
104105  1  0
105106  2  0
106107  1  0
106108  1  0
108109  1  0
109110  1  0
110111  1  0
111112  2  0
111113  1  0
113114  1  0
 84  2  1  0
 97 89  1  0
107102  2  0
 10  5  2  0
 23 15  1  0
 31 26  1  0
 39 34  1  0
 52 47  1  0
 60 55  1  0
 73 68  2  0
 81 76  1  0
 97 92  1  0
110105  1  0
114  7  1  0
 23 18  1  0
 99 28  1  0
 42 37  1  0
 63 58  1  0
 84 79  1  0
  3115  1  0
  4116  1  0
  4117  1  0
  6118  1  0
  8119  1  0
 10120  1  0
 11121  1  0
 11122  1  0
 12123  1  0
 16124  1  0
 16125  1  0
 17126  1  0
 17127  1  0
 19128  1  0
 21129  1  0
 22130  1  0
 24131  1  0
 25132  1  0
 25133  1  0
 27134  1  0
 29135  1  0
 31136  1  0
 32137  1  0
 32138  1  0
 33139  1  0
 35140  1  0
 36141  1  0
 39142  1  0
 40143  1  0
 40144  1  0
 41145  1  0
 41146  1  0
 45147  1  0
 46148  1  0
 46149  1  0
 48150  1  0
 50151  1  0
 52152  1  0
 53153  1  0
 53154  1  0
 54155  1  0
 56156  1  0
 57157  1  0
 60158  1  0
 61159  1  0
 61160  1  0
 62161  1  0
 62162  1  0
 66163  1  0
 67164  1  0
 67165  1  0
 69166  1  0
 71167  1  0
 73168  1  0
 74169  1  0
 74170  1  0
 75171  1  0
 77172  1  0
 78173  1  0
 81174  1  0
 82175  1  0
 82176  1  0
 83177  1  0
 83178  1  0
 85179  1  0
 85180  1  0
 86181  1  0
 90182  1  0
 90183  1  0
 91184  1  0
 91185  1  0
 93186  1  0
 95187  1  0
 96188  1  0
 98189  1  0
 99190  1  0
 99191  1  0
100192  1  0
100193  1  0
101194  1  0
103195  1  0
104196  1  0
107197  1  0
108198  1  0
108199  1  0
109200  1  0
109201  1  0
113202  1  0
114203  1  0
114204  1  0
M  END
