
     RDKit          3D

180186  0  0  0  0  0  0  0  0999 V2000
    3.3223   -4.8961    0.0201 C   0  0  0  0  0  0  0  0  0  0  0  0
    3.6820   -4.1060   -0.8131 C   0  0  0  0  0  0  0  0  0  0  0  0
    3.3755   -4.2735   -2.1451 N   0  0  0  0  0  0  0  0  0  0  0  0
    2.9788   -4.6599   -3.4659 C   0  0  0  0  0  0  0  0  0  0  0  0
    2.0167   -3.7684   -4.1803 C   0  0  0  0  0  0  0  0  0  0  0  0
    2.2541   -2.6759   -5.0639 C   0  0  0  0  0  0  0  0  0  0  0  0
    2.4231   -1.4134   -4.4331 C   0  0  0  0  0  0  0  0  0  0  0  0
    1.0740   -1.2558   -4.0024 C   0  0  0  0  0  0  0  0  0  0  0  0
    0.6190   -2.1622   -3.0018 C   0  0  0  0  0  0  0  0  0  0  0  0
    0.7183   -3.3640   -3.7705 C   0  0  0  0  0  0  0  0  0  0  0  0
    0.6010   -1.9766   -1.5394 C   0  0  0  0  0  0  0  0  0  0  0  0
   -0.7047   -1.5722   -1.0047 N   0  0  0  0  0  0  0  0  0  0  0  0
   -1.8994   -0.9133   -0.6434 C   0  0  0  0  0  0  0  0  0  0  0  0
   -1.9325    0.2915   -0.6081 C   0  0  0  0  0  0  0  0  0  0  0  0
   -2.8983    1.1101   -1.3190 C   0  0  0  0  0  0  0  0  0  0  0  0
   -3.2231    2.3977   -0.5723 C   0  0  0  0  0  0  0  0  0  0  0  0
   -4.5825    2.2934    0.0998 C   0  0  0  0  0  0  0  0  0  0  0  0
   -4.5270    1.3184    1.2425 C   0  0  0  0  0  0  0  0  0  0  0  0
   -5.0973    1.8147    2.4602 N   0  0  0  0  0  0  0  0  0  0  0  0
   -4.3742    2.8854    3.0735 C   0  0  0  0  0  0  0  0  0  0  0  0
   -3.1614    2.5457    3.8882 C   0  0  0  0  0  0  0  0  0  0  0  0
   -3.1000    2.2900    5.3024 C   0  0  0  0  0  0  0  0  0  0  0  0
   -3.1640    0.8653    5.4867 C   0  0  0  0  0  0  0  0  0  0  0  0
   -1.9826    0.3948    4.8388 C   0  0  0  0  0  0  0  0  0  0  0  0
   -1.0676    1.4242    4.4095 C   0  0  0  0  0  0  0  0  0  0  0  0
   -1.9714    1.9193    3.4069 C   0  0  0  0  0  0  0  0  0  0  0  0
    0.0724    2.1335    5.1323 C   0  0  0  0  0  0  0  0  0  0  0  0
   -0.0201    3.5449    5.3044 N   0  0  0  0  0  0  0  0  0  0  0  0
    1.2313    4.2269    5.1202 C   0  0  0  0  0  0  0  0  0  0  0  0
    0.9602    5.7079    5.3606 C   0  0  0  0  0  0  0  0  0  0  0  0
    1.7407    6.5756    4.3815 C   0  0  0  0  0  0  0  0  0  0  0  0
    1.2831    6.2380    2.9917 C   0  0  0  0  0  0  0  0  0  0  0  0
    0.5638    7.3260    2.3436 C   0  0  0  0  0  0  0  0  0  0  0  0
   -0.0077    7.0578    1.3054 C   0  0  0  0  0  0  0  0  0  0  0  0
    0.6930    6.3032    0.3429 N   0  0  0  0  0  0  0  0  0  0  0  0
    1.5521    5.5742   -0.5963 C   0  0  0  0  0  0  0  0  0  0  0  0
    1.7878    6.3367   -1.8568 C   0  0  0  0  0  0  0  0  0  0  0  0
    2.9314    7.0732   -2.2749 C   0  0  0  0  0  0  0  0  0  0  0  0
    3.9325    6.3103   -2.9487 C   0  0  0  0  0  0  0  0  0  0  0  0
    3.1799    6.0411   -4.1261 C   0  0  0  0  0  0  0  0  0  0  0  0
    2.0242    5.2155   -3.9829 C   0  0  0  0  0  0  0  0  0  0  0  0
    1.2692    6.1059   -3.1659 C   0  0  0  0  0  0  0  0  0  0  0  0
    1.9028    3.7423   -4.1324 C   0  0  0  0  0  0  0  0  0  0  0  0
    1.1971    3.3492   -5.3544 N   0  0  0  0  0  0  0  0  0  0  0  0
   -0.0876    2.7752   -5.0986 C   0  0  0  0  0  0  0  0  0  0  0  0
   -0.5472    1.9118   -6.2360 C   0  0  0  0  0  0  0  0  0  0  0  0
   -1.8308    1.1953   -5.8626 C   0  0  0  0  0  0  0  0  0  0  0  0
   -1.9004   -0.1971   -6.4468 C   0  0  0  0  0  0  0  0  0  0  0  0
   -2.8444   -1.0223   -5.7166 C   0  0  0  0  0  0  0  0  0  0  0  0
   -2.7386   -2.2156   -5.5653 C   0  0  0  0  0  0  0  0  0  0  0  0
   -3.2557   -2.7174   -4.3533 N   0  0  0  0  0  0  0  0  0  0  0  0
   -3.9205   -3.3746   -3.2192 C   0  0  0  0  0  0  0  0  0  0  0  0
   -3.2930   -4.6461   -2.8055 C   0  0  0  0  0  0  0  0  0  0  0  0
   -2.5031   -4.8890   -1.6269 C   0  0  0  0  0  0  0  0  0  0  0  0
   -3.3691   -5.4966   -0.6504 C   0  0  0  0  0  0  0  0  0  0  0  0
   -3.7165   -6.7364   -1.2710 C   0  0  0  0  0  0  0  0  0  0  0  0
   -3.0291   -7.0426   -2.4974 C   0  0  0  0  0  0  0  0  0  0  0  0
   -3.6606   -5.9641   -3.2163 C   0  0  0  0  0  0  0  0  0  0  0  0
   -1.7064   -7.7689   -2.7297 C   0  0  0  0  0  0  0  0  0  0  0  0
   -0.7632   -7.7736   -1.6630 N   0  0  0  0  0  0  0  0  0  0  0  0
    0.6028   -7.5838   -2.0082 C   0  0  0  0  0  0  0  0  0  0  0  0
    1.4931   -8.0543   -0.8936 C   0  0  0  0  0  0  0  0  0  0  0  0
    2.6654   -7.1372   -0.6415 C   0  0  0  0  0  0  0  0  0  0  0  0
    2.2049   -5.7934   -0.1466 C   0  0  0  0  0  0  0  0  0  0  0  0
   -4.0568   -4.8389    0.4806 C   0  0  0  0  0  0  0  0  0  0  0  0
   -3.5216   -5.1745    1.8054 N   0  0  0  0  0  0  0  0  0  0  0  0
   -3.0148   -5.8561    2.9303 C   0  0  0  0  0  0  0  0  0  0  0  0
   -3.3026   -5.4431    4.0150 C   0  0  0  0  0  0  0  0  0  0  0  0
   -2.3646   -4.6240    4.7931 C   0  0  0  0  0  0  0  0  0  0  0  0
   -3.2012   -3.6682    5.6259 C   0  0  0  0  0  0  0  0  0  0  0  0
   -4.2966   -3.1328    4.7341 C   0  0  0  0  0  0  0  0  0  0  0  0
   -5.1476   -2.1509    5.5220 C   0  0  0  0  0  0  0  0  0  0  0  0
   -4.9749   -0.8445    4.9314 N   0  0  0  0  0  0  0  0  0  0  0  0
   -4.3366    0.0623    5.8850 C   0  0  0  0  0  0  0  0  0  0  0  0
    5.0962    5.5665   -2.4089 C   0  0  0  0  0  0  0  0  0  0  0  0
    5.1757    4.1366   -2.5786 N   0  0  0  0  0  0  0  0  0  0  0  0
    6.4512    3.7362   -2.0611 C   0  0  0  0  0  0  0  0  0  0  0  0
    6.4007    2.5982   -1.0893 C   0  0  0  0  0  0  0  0  0  0  0  0
    5.5520    2.8449    0.1168 C   0  0  0  0  0  0  0  0  0  0  0  0
    4.1684    2.2154   -0.0001 C   0  0  0  0  0  0  0  0  0  0  0  0
    4.2245    0.9589   -0.7672 C   0  0  0  0  0  0  0  0  0  0  0  0
    3.4433    0.8472   -1.6627 C   0  0  0  0  0  0  0  0  0  0  0  0
    3.6629   -0.1224   -2.6674 N   0  0  0  0  0  0  0  0  0  0  0  0
    3.6598   -0.7530   -3.9612 C   0  0  0  0  0  0  0  0  0  0  0  0
    4.0982   -3.5805   -2.4659 H   0  0  0  0  0  0  0  0  0  0  0  0
    2.7083   -5.7492   -3.4845 H   0  0  0  0  0  0  0  0  0  0  0  0
    3.9827   -4.7869   -3.9459 H   0  0  0  0  0  0  0  0  0  0  0  0
    2.4158   -2.8264   -6.1517 H   0  0  0  0  0  0  0  0  0  0  0  0
    0.4416   -0.4188   -4.3678 H   0  0  0  0  0  0  0  0  0  0  0  0
   -0.1785   -3.9932   -3.9564 H   0  0  0  0  0  0  0  0  0  0  0  0
    1.3152   -1.2859   -1.0529 H   0  0  0  0  0  0  0  0  0  0  0  0
    0.8300   -2.8535   -0.8812 H   0  0  0  0  0  0  0  0  0  0  0  0
   -1.1890   -2.0297   -1.8208 H   0  0  0  0  0  0  0  0  0  0  0  0
   -2.4112    1.4290   -2.2718 H   0  0  0  0  0  0  0  0  0  0  0  0
   -3.8306    0.5874   -1.5767 H   0  0  0  0  0  0  0  0  0  0  0  0
   -3.3119    3.2500   -1.2913 H   0  0  0  0  0  0  0  0  0  0  0  0
   -2.4298    2.6753    0.1354 H   0  0  0  0  0  0  0  0  0  0  0  0
   -5.2916    1.9744   -0.7055 H   0  0  0  0  0  0  0  0  0  0  0  0
   -4.9091    3.3066    0.3976 H   0  0  0  0  0  0  0  0  0  0  0  0
   -5.1455    0.4367    0.9364 H   0  0  0  0  0  0  0  0  0  0  0  0
   -3.5217    0.9250    1.4499 H   0  0  0  0  0  0  0  0  0  0  0  0
   -6.1121    1.8256    2.5113 H   0  0  0  0  0  0  0  0  0  0  0  0
   -5.2202    3.3342    3.6667 H   0  0  0  0  0  0  0  0  0  0  0  0
   -4.2861    3.8052    2.4307 H   0  0  0  0  0  0  0  0  0  0  0  0
   -2.9876    3.0462    6.0916 H   0  0  0  0  0  0  0  0  0  0  0  0
   -1.5930   -0.6448    4.8658 H   0  0  0  0  0  0  0  0  0  0  0  0
   -1.5824    1.9931    2.3681 H   0  0  0  0  0  0  0  0  0  0  0  0
    1.0712    1.9160    4.6739 H   0  0  0  0  0  0  0  0  0  0  0  0
    0.2309    1.8557    6.1781 H   0  0  0  0  0  0  0  0  0  0  0  0
   -0.5234    3.8737    6.1413 H   0  0  0  0  0  0  0  0  0  0  0  0
    1.6586    4.0297    4.1281 H   0  0  0  0  0  0  0  0  0  0  0  0
    1.9217    3.9080    5.9385 H   0  0  0  0  0  0  0  0  0  0  0  0
   -0.1163    5.9214    5.1396 H   0  0  0  0  0  0  0  0  0  0  0  0
    1.1528    5.9845    6.4125 H   0  0  0  0  0  0  0  0  0  0  0  0
    2.8139    6.3152    4.5543 H   0  0  0  0  0  0  0  0  0  0  0  0
    1.5504    7.6214    4.6751 H   0  0  0  0  0  0  0  0  0  0  0  0
    2.1894    5.9240    2.4158 H   0  0  0  0  0  0  0  0  0  0  0  0
    0.6020    5.3516    2.9986 H   0  0  0  0  0  0  0  0  0  0  0  0
    0.7988    5.4999    0.9780 H   0  0  0  0  0  0  0  0  0  0  0  0
    2.4263    5.2850    0.0235 H   0  0  0  0  0  0  0  0  0  0  0  0
    1.0810    4.5817   -0.6508 H   0  0  0  0  0  0  0  0  0  0  0  0
    3.1028    8.1261   -1.9712 H   0  0  0  0  0  0  0  0  0  0  0  0
    3.5149    6.3888   -5.1264 H   0  0  0  0  0  0  0  0  0  0  0  0
    0.2758    6.4923   -3.4747 H   0  0  0  0  0  0  0  0  0  0  0  0
    2.8080    3.1189   -4.1448 H   0  0  0  0  0  0  0  0  0  0  0  0
    1.3661    3.1649   -3.3375 H   0  0  0  0  0  0  0  0  0  0  0  0
    1.7913    2.8445   -6.0234 H   0  0  0  0  0  0  0  0  0  0  0  0
   -0.8303    3.5780   -4.9019 H   0  0  0  0  0  0  0  0  0  0  0  0
   -0.0042    2.1573   -4.1760 H   0  0  0  0  0  0  0  0  0  0  0  0
   -0.7285    2.5142   -7.1450 H   0  0  0  0  0  0  0  0  0  0  0  0
    0.2266    1.1654   -6.4690 H   0  0  0  0  0  0  0  0  0  0  0  0
   -2.7208    1.7563   -6.2077 H   0  0  0  0  0  0  0  0  0  0  0  0
   -1.8663    1.1529   -4.7550 H   0  0  0  0  0  0  0  0  0  0  0  0
   -2.1372   -0.1058   -7.5245 H   0  0  0  0  0  0  0  0  0  0  0  0
   -0.9000   -0.6970   -6.3974 H   0  0  0  0  0  0  0  0  0  0  0  0
   -2.4927   -3.4442   -4.3240 H   0  0  0  0  0  0  0  0  0  0  0  0
   -5.0338   -3.2778   -3.2881 H   0  0  0  0  0  0  0  0  0  0  0  0
   -3.8623   -2.5074   -2.5038 H   0  0  0  0  0  0  0  0  0  0  0  0
   -1.4391   -4.6529   -1.4942 H   0  0  0  0  0  0  0  0  0  0  0  0
   -4.2777   -7.5620   -0.7831 H   0  0  0  0  0  0  0  0  0  0  0  0
   -4.1796   -6.2246   -4.1634 H   0  0  0  0  0  0  0  0  0  0  0  0
   -1.8598   -8.8383   -3.0292 H   0  0  0  0  0  0  0  0  0  0  0  0
   -1.0789   -7.3814   -3.5346 H   0  0  0  0  0  0  0  0  0  0  0  0
   -0.8503   -8.5753   -1.0024 H   0  0  0  0  0  0  0  0  0  0  0  0
    0.7503   -6.5316   -2.2897 H   0  0  0  0  0  0  0  0  0  0  0  0
    0.8154   -8.2141   -2.9087 H   0  0  0  0  0  0  0  0  0  0  0  0
    0.9715   -8.1823    0.0705 H   0  0  0  0  0  0  0  0  0  0  0  0
    1.9293   -9.0560   -1.1381 H   0  0  0  0  0  0  0  0  0  0  0  0
    3.3618   -7.0859   -1.4931 H   0  0  0  0  0  0  0  0  0  0  0  0
    3.2439   -7.6016    0.1972 H   0  0  0  0  0  0  0  0  0  0  0  0
    1.7260   -5.9688    0.8495 H   0  0  0  0  0  0  0  0  0  0  0  0
    1.4257   -5.3350   -0.7830 H   0  0  0  0  0  0  0  0  0  0  0  0
   -5.1732   -4.7548    0.4953 H   0  0  0  0  0  0  0  0  0  0  0  0
   -3.9379   -3.7244    0.5808 H   0  0  0  0  0  0  0  0  0  0  0  0
   -2.5513   -4.8623    1.5410 H   0  0  0  0  0  0  0  0  0  0  0  0
   -1.7537   -4.0408    4.0880 H   0  0  0  0  0  0  0  0  0  0  0  0
   -1.7171   -5.2718    5.4189 H   0  0  0  0  0  0  0  0  0  0  0  0
   -2.5996   -2.8009    5.9666 H   0  0  0  0  0  0  0  0  0  0  0  0
   -3.6258   -4.2304    6.4741 H   0  0  0  0  0  0  0  0  0  0  0  0
   -3.8038   -2.6467    3.8599 H   0  0  0  0  0  0  0  0  0  0  0  0
   -4.9461   -3.9394    4.3383 H   0  0  0  0  0  0  0  0  0  0  0  0
   -6.2199   -2.4294    5.5115 H   0  0  0  0  0  0  0  0  0  0  0  0
   -4.8399   -2.1353    6.5931 H   0  0  0  0  0  0  0  0  0  0  0  0
   -4.4622   -0.8710    4.0292 H   0  0  0  0  0  0  0  0  0  0  0  0
   -5.3059    0.6112    6.0454 H   0  0  0  0  0  0  0  0  0  0  0  0
   -4.2914   -0.3848    6.9164 H   0  0  0  0  0  0  0  0  0  0  0  0
    5.2559    5.5696   -1.3065 H   0  0  0  0  0  0  0  0  0  0  0  0
    6.0882    5.9698   -2.7442 H   0  0  0  0  0  0  0  0  0  0  0  0
    5.0196    3.8411   -3.5699 H   0  0  0  0  0  0  0  0  0  0  0  0
    7.0330    4.5516   -1.6006 H   0  0  0  0  0  0  0  0  0  0  0  0
    7.0590    3.3835   -2.9319 H   0  0  0  0  0  0  0  0  0  0  0  0
    6.1218    1.6801   -1.6226 H   0  0  0  0  0  0  0  0  0  0  0  0
    7.4498    2.4411   -0.7310 H   0  0  0  0  0  0  0  0  0  0  0  0
    5.4417    3.9010    0.3958 H   0  0  0  0  0  0  0  0  0  0  0  0
    6.0181    2.3436    1.0035 H   0  0  0  0  0  0  0  0  0  0  0  0
    3.4353    2.9277   -0.4044 H   0  0  0  0  0  0  0  0  0  0  0  0
    3.7953    1.9303    1.0161 H   0  0  0  0  0  0  0  0  0  0  0  0
    4.6215    0.2624   -2.8404 H   0  0  0  0  0  0  0  0  0  0  0  0
    4.0546    0.0197   -4.6753 H   0  0  0  0  0  0  0  0  0  0  0  0
    4.5716   -1.3812   -3.7952 H   0  0  0  0  0  0  0  0  0  0  0  0
  1  2  3  0
  2  3  1  0
  3  4  1  0
  4  5  1  0
  5  6  2  0
  6  7  1  0
  7  8  2  0
  8  9  1  0
  9 10  2  0
  9 11  1  0
 11 12  1  0
 12 13  1  0
 13 14  3  0
 14 15  1  0
 15 16  1  0
 16 17  1  0
 17 18  1  0
 18 19  1  0
 19 20  1  0
 20 21  1  0
 21 22  1  0
 22 23  2  0
 23 24  1  0
 24 25  2  0
 25 26  1  0
 25 27  1  0
 27 28  1  0
 28 29  1  0
 29 30  1  0
 30 31  1  0
 31 32  1  0
 32 33  1  0
 33 34  3  0
 34 35  1  0
 35 36  1  0
 36 37  1  0
 37 38  1  0
 38 39  2  0
 39 40  1  0
 40 41  2  0
 41 42  1  0
 41 43  1  0
 43 44  1  0
 44 45  1  0
 45 46  1  0
 46 47  1  0
 47 48  1  0
 48 49  1  0
 49 50  3  0
 50 51  1  0
 51 52  1  0
 52 53  1  0
 53 54  2  0
 54 55  1  0
 55 56  2  0
 56 57  1  0
 57 58  2  0
 57 59  1  0
 59 60  1  0
 60 61  1  0
 61 62  1  0
 62 63  1  0
 63 64  1  0
 55 65  1  0
 65 66  1  0
 66 67  1  0
 67 68  3  0
 68 69  1  0
 69 70  1  0
 70 71  1  0
 71 72  1  0
 72 73  1  0
 73 74  1  0
 39 75  1  0
 75 76  1  0
 76 77  1  0
 77 78  1  0
 78 79  1  0
 79 80  1  0
 80 81  1  0
 81 82  3  0
 82 83  1  0
 83 84  1  0
 64  1  1  0
 10  5  1  0
 26 21  2  0
 42 37  2  0
 58 53  1  0
 84  7  1  0
 74 23  1  0
  3 85  1  0
  4 86  1  0
  4 87  1  0
  6 88  1  0
  8 89  1  0
 10 90  1  0
 11 91  1  0
 11 92  1  0
 12 93  1  0
 15 94  1  0
 15 95  1  0
 16 96  1  0
 16 97  1  0
 17 98  1  0
 17 99  1  0
 18100  1  0
 18101  1  0
 19102  1  0
 20103  1  0
 20104  1  0
 22105  1  0
 24106  1  0
 26107  1  0
 27108  1  0
 27109  1  0
 28110  1  0
 29111  1  0
 29112  1  0
 30113  1  0
 30114  1  0
 31115  1  0
 31116  1  0
 32117  1  0
 32118  1  0
 35119  1  0
 36120  1  0
 36121  1  0
 38122  1  0
 40123  1  0
 42124  1  0
 43125  1  0
 43126  1  0
 44127  1  0
 45128  1  0
 45129  1  0
 46130  1  0
 46131  1  0
 47132  1  0
 47133  1  0
 48134  1  0
 48135  1  0
 51136  1  0
 52137  1  0
 52138  1  0
 54139  1  0
 56140  1  0
 58141  1  0
 59142  1  0
 59143  1  0
 60144  1  0
 61145  1  0
 61146  1  0
 62147  1  0
 62148  1  0
 63149  1  0
 63150  1  0
 64151  1  0
 64152  1  0
 65153  1  0
 65154  1  0
 66155  1  0
 69156  1  0
 69157  1  0
 70158  1  0
 70159  1  0
 71160  1  0
 71161  1  0
 72162  1  0
 72163  1  0
 73164  1  0
 74165  1  0
 74166  1  0
 75167  1  0
 75168  1  0
 76169  1  0
 77170  1  0
 77171  1  0
 78172  1  0
 78173  1  0
 79174  1  0
 79175  1  0
 80176  1  0
 80177  1  0
 83178  1  0
 84179  1  0
 84180  1  0
M  END
