
     RDKit          3D

192204  0  0  0  0  0  0  0  0999 V2000
    3.6246    6.5439    6.8743 O   0  0  0  0  0  0  0  0  0  0  0  0
    3.6737    6.5323    5.6124 C   0  0  0  0  0  0  0  0  0  0  0  0
    4.8644    5.9560    4.9694 C   0  0  0  0  0  0  0  0  0  0  0  0
    5.3489    4.7282    5.4205 C   0  0  0  0  0  0  0  0  0  0  0  0
    6.2963    4.3882    4.4519 C   0  0  0  0  0  0  0  0  0  0  0  0
    5.9991    3.1135    5.1490 C   0  0  0  0  0  0  0  0  0  0  0  0
    4.7643    3.4157    5.1951 O   0  0  0  0  0  0  0  0  0  0  0  0
    5.7675    1.7312    5.0424 O   0  0  0  0  0  0  0  0  0  0  0  0
    5.5527    0.4199    4.5136 C   0  0  0  0  0  0  0  0  0  0  0  0
    5.9774    0.3221    3.1415 N   0  0  0  0  0  0  0  0  0  0  0  0
    5.1813    1.1097    2.2284 C   0  0  0  0  0  0  0  0  0  0  0  0
    3.7844    0.4935    2.0591 C   0  0  0  0  0  0  0  0  0  0  0  0
    2.5516    0.8910    2.6666 C   0  0  0  0  0  0  0  0  0  0  0  0
    1.6869    1.6528    1.8235 C   0  0  0  0  0  0  0  0  0  0  0  0
    2.2149    1.3307    0.5284 C   0  0  0  0  0  0  0  0  0  0  0  0
    2.3574   -0.0479    0.1881 C   0  0  0  0  0  0  0  0  0  0  0  0
    3.3520   -0.4873    1.1149 C   0  0  0  0  0  0  0  0  0  0  0  0
    1.7501   -0.8617   -0.9538 C   0  0  0  0  0  0  0  0  0  0  0  0
    1.0759   -2.0507   -0.6019 N   0  0  0  0  0  0  0  0  0  0  0  0
   -0.0504   -2.4587   -1.3349 C   0  0  0  0  0  0  0  0  0  0  0  0
   -1.0015   -3.2650   -0.6327 O   0  0  0  0  0  0  0  0  0  0  0  0
   -1.8210   -4.2442   -0.0265 C   0  0  0  0  0  0  0  0  0  0  0  0
   -2.8905   -3.9256   -0.4215 O   0  0  0  0  0  0  0  0  0  0  0  0
   -2.3813   -4.7967    1.2307 C   0  0  0  0  0  0  0  0  0  0  0  0
   -3.3550   -5.1069    0.2868 C   0  0  0  0  0  0  0  0  0  0  0  0
   -4.5045   -5.2265    1.0632 C   0  0  0  0  0  0  0  0  0  0  0  0
   -5.7530   -5.7514    0.4974 C   0  0  0  0  0  0  0  0  0  0  0  0
   -6.1367   -6.8620    0.9174 O   0  0  0  0  0  0  0  0  0  0  0  0
   -4.2810   -4.8088    2.3378 N   0  0  0  0  0  0  0  0  0  0  0  0
   -2.9360   -4.8857    2.5161 C   0  0  0  0  0  0  0  0  0  0  0  0
   -3.3713   -4.2435    3.7305 N   0  0  0  0  0  0  0  0  0  0  0  0
   -3.1738   -3.3318    4.8548 C   0  0  0  0  0  0  0  0  0  0  0  0
   -1.9185   -2.4642    4.6634 C   0  0  0  0  0  0  0  0  0  0  0  0
   -1.7231   -1.1731    4.0908 C   0  0  0  0  0  0  0  0  0  0  0  0
   -1.4268   -1.2639    2.6899 C   0  0  0  0  0  0  0  0  0  0  0  0
   -0.1692   -1.9097    2.7062 C   0  0  0  0  0  0  0  0  0  0  0  0
    0.0906   -3.0916    3.4454 C   0  0  0  0  0  0  0  0  0  0  0  0
   -0.5499   -2.8621    4.7046 C   0  0  0  0  0  0  0  0  0  0  0  0
    1.0308   -4.2542    3.1776 C   0  0  0  0  0  0  0  0  0  0  0  0
    1.2393   -4.7239    1.8984 N   0  0  0  0  0  0  0  0  0  0  0  0
    1.3161   -5.6146    0.7716 C   0  0  0  0  0  0  0  0  0  0  0  0
    2.6039   -5.2791    0.8569 N   0  0  0  0  0  0  0  0  0  0  0  0
    3.1930   -5.6539   -0.3066 C   0  0  0  0  0  0  0  0  0  0  0  0
    4.6196   -5.4610   -0.5950 C   0  0  0  0  0  0  0  0  0  0  0  0
    4.8830   -4.7356   -1.5938 O   0  0  0  0  0  0  0  0  0  0  0  0
    2.2644   -6.1151   -1.2370 C   0  0  0  0  0  0  0  0  0  0  0  0
    1.0918   -6.1951   -0.4916 C   0  0  0  0  0  0  0  0  0  0  0  0
    0.6181   -6.2980   -1.9024 C   0  0  0  0  0  0  0  0  0  0  0  0
    1.4986   -5.5281   -2.3319 O   0  0  0  0  0  0  0  0  0  0  0  0
   -0.3739   -5.9211   -2.8352 O   0  0  0  0  0  0  0  0  0  0  0  0
   -1.6063   -5.8353   -3.5424 C   0  0  0  0  0  0  0  0  0  0  0  0
   -2.1242   -4.5252   -3.6949 N   0  0  0  0  0  0  0  0  0  0  0  0
   -3.5315   -4.4183   -3.8920 C   0  0  0  0  0  0  0  0  0  0  0  0
   -4.1813   -3.1483   -3.3590 C   0  0  0  0  0  0  0  0  0  0  0  0
   -5.4774   -2.9340   -2.7914 C   0  0  0  0  0  0  0  0  0  0  0  0
   -5.6508   -1.7785   -1.9753 C   0  0  0  0  0  0  0  0  0  0  0  0
   -5.5643   -0.7318   -2.9394 C   0  0  0  0  0  0  0  0  0  0  0  0
   -4.4776   -0.8206   -3.8534 C   0  0  0  0  0  0  0  0  0  0  0  0
   -3.6386   -1.8313   -3.2953 C   0  0  0  0  0  0  0  0  0  0  0  0
   -4.3530   -0.2442   -5.2565 C   0  0  0  0  0  0  0  0  0  0  0  0
   -2.9818    0.2001   -5.5298 N   0  0  0  0  0  0  0  0  0  0  0  0
   -1.5871    0.5340   -5.4333 C   0  0  0  0  0  0  0  0  0  0  0  0
   -1.6017   -0.2946   -6.5081 N   0  0  0  0  0  0  0  0  0  0  0  0
   -0.3229   -0.6167   -6.8215 C   0  0  0  0  0  0  0  0  0  0  0  0
    0.1113   -1.7094   -7.6661 C   0  0  0  0  0  0  0  0  0  0  0  0
    0.3154   -2.8232   -7.0947 O   0  0  0  0  0  0  0  0  0  0  0  0
    0.5694    0.1328   -6.0607 C   0  0  0  0  0  0  0  0  0  0  0  0
   -0.2450    0.7946   -5.1391 C   0  0  0  0  0  0  0  0  0  0  0  0
    1.1269    0.9793   -4.6248 C   0  0  0  0  0  0  0  0  0  0  0  0
    1.3794   -0.2348   -4.9064 O   0  0  0  0  0  0  0  0  0  0  0  0
    2.3226    1.2332   -3.9365 O   0  0  0  0  0  0  0  0  0  0  0  0
    3.6114    1.7050   -3.5335 C   0  0  0  0  0  0  0  0  0  0  0  0
    3.4337    3.0529   -3.1142 N   0  0  0  0  0  0  0  0  0  0  0  0
    4.6113    3.7000   -2.5887 C   0  0  0  0  0  0  0  0  0  0  0  0
    4.2451    4.8377   -1.6392 C   0  0  0  0  0  0  0  0  0  0  0  0
    3.7679    6.1395   -1.9813 C   0  0  0  0  0  0  0  0  0  0  0  0
    2.7687    6.6436   -1.0962 C   0  0  0  0  0  0  0  0  0  0  0  0
    3.5417    6.9780    0.0520 C   0  0  0  0  0  0  0  0  0  0  0  0
    4.6525    6.1180    0.3257 C   0  0  0  0  0  0  0  0  0  0  0  0
    4.2045    4.8759   -0.2100 C   0  0  0  0  0  0  0  0  0  0  0  0
    6.0570    6.4473    0.8297 C   0  0  0  0  0  0  0  0  0  0  0  0
    6.1926    6.0259    2.2258 N   0  0  0  0  0  0  0  0  0  0  0  0
    6.3581    5.4307    3.5193 C   0  0  0  0  0  0  0  0  0  0  0  0
    5.2276    6.1728    3.6767 N   0  0  0  0  0  0  0  0  0  0  0  0
    1.2456    6.4732   -1.2083 C   0  0  0  0  0  0  0  0  0  0  0  0
    0.7855    6.6941   -2.5445 N   0  0  0  0  0  0  0  0  0  0  0  0
    0.5607    5.4581   -3.2450 C   0  0  0  0  0  0  0  0  0  0  0  0
    0.2557    4.4334   -2.2966 O   0  0  0  0  0  0  0  0  0  0  0  0
   -0.3361    3.3413   -1.6407 C   0  0  0  0  0  0  0  0  0  0  0  0
   -1.4760    3.8859   -1.4812 O   0  0  0  0  0  0  0  0  0  0  0  0
   -0.9102    2.0694   -1.1419 C   0  0  0  0  0  0  0  0  0  0  0  0
   -1.8786    2.5823   -1.9961 C   0  0  0  0  0  0  0  0  0  0  0  0
   -3.0403    1.9293   -1.5966 C   0  0  0  0  0  0  0  0  0  0  0  0
   -4.2720    2.5492   -1.9700 C   0  0  0  0  0  0  0  0  0  0  0  0
   -4.5065    2.7824   -3.1938 O   0  0  0  0  0  0  0  0  0  0  0  0
   -2.6996    0.9027   -0.8048 N   0  0  0  0  0  0  0  0  0  0  0  0
   -1.4509    1.0162   -0.3864 C   0  0  0  0  0  0  0  0  0  0  0  0
   -1.9227    0.0318    0.5663 N   0  0  0  0  0  0  0  0  0  0  0  0
   -2.3904   -0.8819    1.5692 C   0  0  0  0  0  0  0  0  0  0  0  0
   -5.8261   -1.7980   -0.4617 C   0  0  0  0  0  0  0  0  0  0  0  0
   -6.0448   -0.4846    0.1331 N   0  0  0  0  0  0  0  0  0  0  0  0
   -5.9153    0.7767    0.8360 C   0  0  0  0  0  0  0  0  0  0  0  0
   -6.7971    0.1539    1.6418 N   0  0  0  0  0  0  0  0  0  0  0  0
   -6.8142    0.7906    2.8381 C   0  0  0  0  0  0  0  0  0  0  0  0
   -7.7076    0.5042    3.9451 C   0  0  0  0  0  0  0  0  0  0  0  0
   -7.2030    0.0614    5.0079 O   0  0  0  0  0  0  0  0  0  0  0  0
   -5.7978    1.7386    2.9095 C   0  0  0  0  0  0  0  0  0  0  0  0
   -5.3200    1.8083    1.6059 C   0  0  0  0  0  0  0  0  0  0  0  0
   -4.2507    2.4599    2.4303 C   0  0  0  0  0  0  0  0  0  0  0  0
   -4.4363    1.6923    3.4255 O   0  0  0  0  0  0  0  0  0  0  0  0
   -2.8835    2.6653    2.7064 O   0  0  0  0  0  0  0  0  0  0  0  0
   -1.5742    3.2326    2.7286 C   0  0  0  0  0  0  0  0  0  0  0  0
   -0.5130    2.2987    2.8670 N   0  0  0  0  0  0  0  0  0  0  0  0
    0.7066    2.7347    2.2428 C   0  0  0  0  0  0  0  0  0  0  0  0
    2.7282    6.2847    5.1261 H   0  0  0  0  0  0  0  0  0  0  0  0
    5.6982    4.5723    6.4503 H   0  0  0  0  0  0  0  0  0  0  0  0
    4.5011    0.1093    4.5753 H   0  0  0  0  0  0  0  0  0  0  0  0
    6.1700   -0.2866    5.0970 H   0  0  0  0  0  0  0  0  0  0  0  0
    5.9899   -0.6790    2.8826 H   0  0  0  0  0  0  0  0  0  0  0  0
    5.1703    2.1323    2.5966 H   0  0  0  0  0  0  0  0  0  0  0  0
    5.7433    1.1882    1.2908 H   0  0  0  0  0  0  0  0  0  0  0  0
    2.2852    0.5638    3.6765 H   0  0  0  0  0  0  0  0  0  0  0  0
    2.5385    2.1211   -0.1664 H   0  0  0  0  0  0  0  0  0  0  0  0
    3.6824   -1.5275    1.2090 H   0  0  0  0  0  0  0  0  0  0  0  0
    1.0575   -0.2989   -1.5755 H   0  0  0  0  0  0  0  0  0  0  0  0
    2.5332   -1.1256   -1.7180 H   0  0  0  0  0  0  0  0  0  0  0  0
    1.7832   -2.8320   -0.6321 H   0  0  0  0  0  0  0  0  0  0  0  0
    0.2936   -2.9704   -2.2709 H   0  0  0  0  0  0  0  0  0  0  0  0
   -0.5775   -1.5733   -1.7207 H   0  0  0  0  0  0  0  0  0  0  0  0
   -2.9610   -5.8251   -0.4477 H   0  0  0  0  0  0  0  0  0  0  0  0
   -6.4949   -5.0285    0.1812 H   0  0  0  0  0  0  0  0  0  0  0  0
   -4.8602   -5.2688    3.0950 H   0  0  0  0  0  0  0  0  0  0  0  0
   -4.2145   -3.7727    3.3206 H   0  0  0  0  0  0  0  0  0  0  0  0
   -3.1572   -3.8540    5.8263 H   0  0  0  0  0  0  0  0  0  0  0  0
   -4.0829   -2.7328    4.9150 H   0  0  0  0  0  0  0  0  0  0  0  0
   -1.9971   -0.2470    4.6008 H   0  0  0  0  0  0  0  0  0  0  0  0
    0.6650   -1.3558    2.2517 H   0  0  0  0  0  0  0  0  0  0  0  0
   -0.0323   -2.9706    5.6704 H   0  0  0  0  0  0  0  0  0  0  0  0
    0.7570   -5.1563    3.7867 H   0  0  0  0  0  0  0  0  0  0  0  0
    2.0677   -4.0318    3.5622 H   0  0  0  0  0  0  0  0  0  0  0  0
    2.0255   -4.1655    1.5461 H   0  0  0  0  0  0  0  0  0  0  0  0
    3.0354   -5.4214    1.8129 H   0  0  0  0  0  0  0  0  0  0  0  0
    5.2584   -6.3128   -0.3551 H   0  0  0  0  0  0  0  0  0  0  0  0
    2.4460   -7.0715   -1.7530 H   0  0  0  0  0  0  0  0  0  0  0  0
   -2.3978   -6.4705   -3.0756 H   0  0  0  0  0  0  0  0  0  0  0  0
   -1.4374   -6.2829   -4.5513 H   0  0  0  0  0  0  0  0  0  0  0  0
   -1.6473   -3.9301   -4.3930 H   0  0  0  0  0  0  0  0  0  0  0  0
   -3.7226   -4.5414   -4.9885 H   0  0  0  0  0  0  0  0  0  0  0  0
   -3.9127   -5.3338   -3.4273 H   0  0  0  0  0  0  0  0  0  0  0  0
   -6.3282   -3.5898   -3.0328 H   0  0  0  0  0  0  0  0  0  0  0  0
   -6.2003    0.1576   -2.8663 H   0  0  0  0  0  0  0  0  0  0  0  0
   -2.6778   -1.5938   -2.8266 H   0  0  0  0  0  0  0  0  0  0  0  0
   -4.6930   -0.9131   -6.0503 H   0  0  0  0  0  0  0  0  0  0  0  0
   -4.8925    0.6997   -5.3954 H   0  0  0  0  0  0  0  0  0  0  0  0
   -2.7317   -0.7882   -5.8036 H   0  0  0  0  0  0  0  0  0  0  0  0
   -2.3043   -0.1545   -7.2829 H   0  0  0  0  0  0  0  0  0  0  0  0
    0.8340   -1.4624   -8.4459 H   0  0  0  0  0  0  0  0  0  0  0  0
    1.3187    0.7519   -6.5757 H   0  0  0  0  0  0  0  0  0  0  0  0
    4.3240    1.6853   -4.3718 H   0  0  0  0  0  0  0  0  0  0  0  0
    3.9083    1.0845   -2.6720 H   0  0  0  0  0  0  0  0  0  0  0  0
    2.7412    3.0492   -2.3465 H   0  0  0  0  0  0  0  0  0  0  0  0
    5.1936    2.9074   -2.1129 H   0  0  0  0  0  0  0  0  0  0  0  0
    5.3173    4.0318   -3.3933 H   0  0  0  0  0  0  0  0  0  0  0  0
    4.1070    6.7091   -2.8512 H   0  0  0  0  0  0  0  0  0  0  0  0
    3.3210    7.8567    0.6640 H   0  0  0  0  0  0  0  0  0  0  0  0
    3.9056    4.0317    0.4150 H   0  0  0  0  0  0  0  0  0  0  0  0
    6.2715    7.5196    0.8657 H   0  0  0  0  0  0  0  0  0  0  0  0
    6.8676    6.0608    0.1968 H   0  0  0  0  0  0  0  0  0  0  0  0
    5.9361    6.9163    2.6779 H   0  0  0  0  0  0  0  0  0  0  0  0
    4.4504    6.3182    2.9710 H   0  0  0  0  0  0  0  0  0  0  0  0
    0.7157    7.3071   -0.6802 H   0  0  0  0  0  0  0  0  0  0  0  0
    0.8815    5.5534   -0.7467 H   0  0  0  0  0  0  0  0  0  0  0  0
    1.4540    7.3162   -3.0708 H   0  0  0  0  0  0  0  0  0  0  0  0
   -0.2986    5.6357   -3.9402 H   0  0  0  0  0  0  0  0  0  0  0  0
    1.4177    5.2003   -3.8828 H   0  0  0  0  0  0  0  0  0  0  0  0
   -1.5766    2.7239   -3.0435 H   0  0  0  0  0  0  0  0  0  0  0  0
   -4.9021    3.0441   -1.2601 H   0  0  0  0  0  0  0  0  0  0  0  0
   -3.2274    0.0203   -0.8658 H   0  0  0  0  0  0  0  0  0  0  0  0
   -2.7930    0.5764    0.5804 H   0  0  0  0  0  0  0  0  0  0  0  0
   -3.3382   -0.4671    1.9984 H   0  0  0  0  0  0  0  0  0  0  0  0
   -2.8476   -1.7173    1.0664 H   0  0  0  0  0  0  0  0  0  0  0  0
   -6.8052   -2.2750   -0.1863 H   0  0  0  0  0  0  0  0  0  0  0  0
   -4.9865   -2.1960    0.0960 H   0  0  0  0  0  0  0  0  0  0  0  0
   -6.1652   -0.9780    1.0608 H   0  0  0  0  0  0  0  0  0  0  0  0
   -7.6482   -0.2512    1.1646 H   0  0  0  0  0  0  0  0  0  0  0  0
   -8.7588    0.6702    3.8198 H   0  0  0  0  0  0  0  0  0  0  0  0
   -6.0225    2.7493    3.2844 H   0  0  0  0  0  0  0  0  0  0  0  0
   -1.5756    3.9480    3.5846 H   0  0  0  0  0  0  0  0  0  0  0  0
   -1.3775    3.8425    1.8112 H   0  0  0  0  0  0  0  0  0  0  0  0
   -0.2893    2.0349    3.8594 H   0  0  0  0  0  0  0  0  0  0  0  0
    1.1734    3.5036    2.9115 H   0  0  0  0  0  0  0  0  0  0  0  0
    0.3607    3.3657    1.4154 H   0  0  0  0  0  0  0  0  0  0  0  0
  1  2  2  0
  2  3  1  0
  3  4  2  0
  4  5  1  0
  5  6  1  0
  6  7  2  0
  6  8  1  0
  8  9  1  0
  9 10  1  0
 10 11  1  0
 11 12  1  0
 12 13  2  0
 13 14  1  0
 14 15  2  0
 15 16  1  0
 16 17  2  0
 16 18  1  0
 18 19  1  0
 19 20  1  0
 20 21  1  0
 21 22  1  0
 22 23  2  0
 22 24  1  0
 24 25  1  0
 25 26  2  0
 26 27  1  0
 27 28  2  0
 26 29  1  0
 29 30  1  0
 30 31  1  0
 31 32  1  0
 32 33  1  0
 33 34  1  0
 34 35  2  0
 35 36  1  0
 36 37  2  0
 37 38  1  0
 37 39  1  0
 39 40  1  0
 40 41  1  0
 41 42  1  0
 42 43  1  0
 43 44  1  0
 44 45  2  0
 43 46  2  0
 46 47  1  0
 47 48  1  0
 48 49  2  0
 48 50  1  0
 50 51  1  0
 51 52  1  0
 52 53  1  0
 53 54  1  0
 54 55  1  0
 55 56  2  0
 56 57  1  0
 57 58  2  0
 58 59  1  0
 58 60  1  0
 60 61  1  0
 61 62  1  0
 62 63  1  0
 63 64  1  0
 64 65  1  0
 65 66  2  0
 64 67  2  0
 67 68  1  0
 68 69  1  0
 69 70  2  0
 69 71  1  0
 71 72  1  0
 72 73  1  0
 73 74  1  0
 74 75  1  0
 75 76  2  0
 76 77  1  0
 77 78  2  0
 78 79  1  0
 79 80  2  0
 79 81  1  0
 81 82  1  0
 82 83  1  0
 83 84  1  0
 77 85  1  0
 85 86  1  0
 86 87  1  0
 87 88  1  0
 88 89  1  0
 89 90  2  0
 89 91  1  0
 91 92  1  0
 92 93  2  0
 93 94  1  0
 94 95  2  0
 93 96  1  0
 96 97  1  0
 97 98  1  0
 98 99  1  0
 56100  1  0
100101  1  0
101102  1  0
102103  1  0
103104  1  0
104105  1  0
105106  2  0
104107  2  0
107108  1  0
108109  1  0
109110  2  0
109111  1  0
111112  1  0
112113  1  0
113114  1  0
 84  3  1  0
 97 91  2  0
108102  2  0
 83  5  2  0
 17 12  1  0
 30 24  2  0
 38 33  2  0
 47 41  2  0
 59 54  2  0
 68 62  2  0
 80 75  1  0
114 14  1  0
 99 35  1  0
  2115  1  0
  4116  1  0
  9117  1  0
  9118  1  0
 10119  1  0
 11120  1  0
 11121  1  0
 13122  1  0
 15123  1  0
 17124  1  0
 18125  1  0
 18126  1  0
 19127  1  0
 20128  1  0
 20129  1  0
 25130  1  0
 27131  1  0
 29132  1  0
 31133  1  0
 32134  1  0
 32135  1  0
 34136  1  0
 36137  1  0
 38138  1  0
 39139  1  0
 39140  1  0
 40141  1  0
 42142  1  0
 44143  1  0
 46144  1  0
 51145  1  0
 51146  1  0
 52147  1  0
 53148  1  0
 53149  1  0
 55150  1  0
 57151  1  0
 59152  1  0
 60153  1  0
 60154  1  0
 61155  1  0
 63156  1  0
 65157  1  0
 67158  1  0
 72159  1  0
 72160  1  0
 73161  1  0
 74162  1  0
 74163  1  0
 76164  1  0
 78165  1  0
 80166  1  0
 81167  1  0
 81168  1  0
 82169  1  0
 84170  1  0
 85171  1  0
 85172  1  0
 86173  1  0
 87174  1  0
 87175  1  0
 92176  1  0
 94177  1  0
 96178  1  0
 98179  1  0
 99180  1  0
 99181  1  0
100182  1  0
100183  1  0
101184  1  0
103185  1  0
105186  1  0
107187  1  0
112188  1  0
112189  1  0
113190  1  0
114191  1  0
114192  1  0
M  END
