
     RDKit          3D

144156  0  0  0  0  0  0  0  0999 V2000
   -3.7780   -0.2578    5.4509 O   0  0  0  0  0  0  0  0  0  0  0  0
   -2.5204   -0.3924    5.3442 C   0  0  0  0  0  0  0  0  0  0  0  0
   -2.5733   -1.8194    5.1930 N   0  0  0  0  0  0  0  0  0  0  0  0
   -2.5924   -3.2539    5.1642 C   0  0  0  0  0  0  0  0  0  0  0  0
   -1.8204   -3.8510    3.9979 C   0  0  0  0  0  0  0  0  0  0  0  0
   -1.6824   -3.3578    2.6652 C   0  0  0  0  0  0  0  0  0  0  0  0
   -1.9007   -4.3458    1.6601 C   0  0  0  0  0  0  0  0  0  0  0  0
   -0.7283   -5.1508    1.7474 C   0  0  0  0  0  0  0  0  0  0  0  0
   -0.0828   -5.1396    3.0216 C   0  0  0  0  0  0  0  0  0  0  0  0
   -1.1812   -5.1227    3.9252 C   0  0  0  0  0  0  0  0  0  0  0  0
    1.3999   -4.9804    3.3644 C   0  0  0  0  0  0  0  0  0  0  0  0
    1.6894   -3.7668    4.0663 N   0  0  0  0  0  0  0  0  0  0  0  0
    2.2479   -2.8326    4.9453 C   0  0  0  0  0  0  0  0  0  0  0  0
    1.2958   -2.6532    5.7256 O   0  0  0  0  0  0  0  0  0  0  0  0
    3.0254   -1.7309    5.5172 C   0  0  0  0  0  0  0  0  0  0  0  0
    1.7052   -1.4836    5.7239 N   0  0  0  0  0  0  0  0  0  0  0  0
    1.3683   -0.1652    5.7456 C   0  0  0  0  0  0  0  0  0  0  0  0
    2.1334    0.6812    5.0136 N   0  0  0  0  0  0  0  0  0  0  0  0
    3.4721    0.4784    4.9325 C   0  0  0  0  0  0  0  0  0  0  0  0
    3.1549    1.4460    3.8749 C   0  0  0  0  0  0  0  0  0  0  0  0
    4.2634    2.4981    3.6977 C   0  0  0  0  0  0  0  0  0  0  0  0
    4.2144    3.6647    2.8785 C   0  0  0  0  0  0  0  0  0  0  0  0
    4.9179    3.5555    1.6400 C   0  0  0  0  0  0  0  0  0  0  0  0
    6.2586    3.3999    2.1093 C   0  0  0  0  0  0  0  0  0  0  0  0
    6.4976    2.1984    2.8508 C   0  0  0  0  0  0  0  0  0  0  0  0
    5.6626    2.4269    3.9854 C   0  0  0  0  0  0  0  0  0  0  0  0
    7.1908    0.8900    2.4468 C   0  0  0  0  0  0  0  0  0  0  0  0
    6.2689   -0.1966    2.1144 C   0  0  0  0  0  0  0  0  0  0  0  0
    6.6151    0.3668    0.9294 N   0  0  0  0  0  0  0  0  0  0  0  0
    6.0816   -0.1459   -0.2070 C   0  0  0  0  0  0  0  0  0  0  0  0
    4.8154   -0.6438   -0.1687 N   0  0  0  0  0  0  0  0  0  0  0  0
    4.4972   -1.2178    1.0206 C   0  0  0  0  0  0  0  0  0  0  0  0
    3.2273   -0.8633    0.3705 C   0  0  0  0  0  0  0  0  0  0  0  0
    3.7456   -0.8366   -0.7619 O   0  0  0  0  0  0  0  0  0  0  0  0
    2.0424   -0.1171    0.0611 N   0  0  0  0  0  0  0  0  0  0  0  0
    1.0704    0.9736   -0.0229 C   0  0  0  0  0  0  0  0  0  0  0  0
   -0.2636    0.4996    0.5755 C   0  0  0  0  0  0  0  0  0  0  0  0
   -1.4191   -0.0383   -0.0701 C   0  0  0  0  0  0  0  0  0  0  0  0
   -2.5424    0.8480   -0.0937 C   0  0  0  0  0  0  0  0  0  0  0  0
   -2.8454    0.9169    1.2988 C   0  0  0  0  0  0  0  0  0  0  0  0
   -1.8295    1.5675    2.0671 C   0  0  0  0  0  0  0  0  0  0  0  0
   -0.7421    0.6527    1.9137 C   0  0  0  0  0  0  0  0  0  0  0  0
   -1.7843    2.9663    2.7025 C   0  0  0  0  0  0  0  0  0  0  0  0
   -1.8788    2.8479    4.1971 C   0  0  0  0  0  0  0  0  0  0  0  0
   -3.1310    2.6599    3.7079 N   0  0  0  0  0  0  0  0  0  0  0  0
   -4.0457    2.0283    4.4866 C   0  0  0  0  0  0  0  0  0  0  0  0
   -3.5697    0.9120    5.1042 N   0  0  0  0  0  0  0  0  0  0  0  0
   -2.3179    1.0421    5.6159 C   0  0  0  0  0  0  0  0  0  0  0  0
   -1.6396    2.2458    5.4323 C   0  0  0  0  0  0  0  0  0  0  0  0
   -0.7213    3.0217    6.6971 Cl  0  0  0  0  0  0  0  0  0  0  0  0
   -3.0859    1.7560   -1.2060 C   0  0  0  0  0  0  0  0  0  0  0  0
   -4.5147    1.5132   -1.4160 N   0  0  0  0  0  0  0  0  0  0  0  0
   -4.8264    2.2025   -2.5997 N   0  0  0  0  0  0  0  0  0  0  0  0
   -4.9009    2.6807   -3.9486 C   0  0  0  0  0  0  0  0  0  0  0  0
   -4.0333    3.4938   -3.2979 N   0  0  0  0  0  0  0  0  0  0  0  0
   -3.0293    4.0523   -4.0173 C   0  0  0  0  0  0  0  0  0  0  0  0
   -2.6415    3.3454   -5.1067 N   0  0  0  0  0  0  0  0  0  0  0  0
   -3.5264    2.6248   -5.8349 C   0  0  0  0  0  0  0  0  0  0  0  0
   -2.2487    2.4812   -6.5282 C   0  0  0  0  0  0  0  0  0  0  0  0
   -1.6015    1.1052   -6.4117 C   0  0  0  0  0  0  0  0  0  0  0  0
   -0.2117    0.8171   -6.3025 C   0  0  0  0  0  0  0  0  0  0  0  0
    0.2232    0.6558   -4.9509 C   0  0  0  0  0  0  0  0  0  0  0  0
   -0.8640   -0.0533   -4.3550 C   0  0  0  0  0  0  0  0  0  0  0  0
   -1.4328   -1.0034   -5.2550 C   0  0  0  0  0  0  0  0  0  0  0  0
   -2.2002   -0.1536   -6.1147 C   0  0  0  0  0  0  0  0  0  0  0  0
   -1.0132   -2.4674   -5.4276 C   0  0  0  0  0  0  0  0  0  0  0  0
   -1.7146   -3.3332   -4.4446 C   0  0  0  0  0  0  0  0  0  0  0  0
   -2.4125   -2.2015   -4.4797 N   0  0  0  0  0  0  0  0  0  0  0  0
   -3.4897   -2.0656   -3.6686 C   0  0  0  0  0  0  0  0  0  0  0  0
   -3.3772   -2.6665   -2.4589 N   0  0  0  0  0  0  0  0  0  0  0  0
   -2.6597   -3.8141   -2.3876 C   0  0  0  0  0  0  0  0  0  0  0  0
   -3.0753   -3.4851   -1.0619 N   0  0  0  0  0  0  0  0  0  0  0  0
   -3.6970   -3.5212    0.1880 N   0  0  0  0  0  0  0  0  0  0  0  0
   -3.2420   -4.6541    0.9945 C   0  0  0  0  0  0  0  0  0  0  0  0
   -2.0824   -4.2987   -3.5553 C   0  0  0  0  0  0  0  0  0  0  0  0
   -2.0222   -6.0250   -3.9103 Cl  0  0  0  0  0  0  0  0  0  0  0  0
    1.5152    1.1486   -4.3101 C   0  0  0  0  0  0  0  0  0  0  0  0
    1.3710    2.4957   -3.8184 N   0  0  0  0  0  0  0  0  0  0  0  0
    1.4308    3.6733   -3.0055 C   0  0  0  0  0  0  0  0  0  0  0  0
    2.1092    4.3931   -3.7945 O   0  0  0  0  0  0  0  0  0  0  0  0
    1.7980    4.5287   -1.8629 C   0  0  0  0  0  0  0  0  0  0  0  0
    2.7808    4.6716   -2.7899 N   0  0  0  0  0  0  0  0  0  0  0  0
    4.0397    4.8333   -2.2963 C   0  0  0  0  0  0  0  0  0  0  0  0
    4.3388    4.4467   -1.0313 N   0  0  0  0  0  0  0  0  0  0  0  0
    3.3579    4.3284   -0.1387 C   0  0  0  0  0  0  0  0  0  0  0  0
    4.3381    3.2940    0.2398 C   0  0  0  0  0  0  0  0  0  0  0  0
    2.1156    4.8169   -0.5352 C   0  0  0  0  0  0  0  0  0  0  0  0
    0.9763    5.5372    0.5673 Cl  0  0  0  0  0  0  0  0  0  0  0  0
   -4.8222    2.6034   -5.3325 C   0  0  0  0  0  0  0  0  0  0  0  0
   -6.2455    2.4568   -6.3269 Cl  0  0  0  0  0  0  0  0  0  0  0  0
    5.4161   -1.2929    2.0627 C   0  0  0  0  0  0  0  0  0  0  0  0
    5.7411   -2.8043    2.9059 Cl  0  0  0  0  0  0  0  0  0  0  0  0
    3.9145   -0.6616    5.6062 C   0  0  0  0  0  0  0  0  0  0  0  0
    5.4971   -0.7961    6.3116 Cl  0  0  0  0  0  0  0  0  0  0  0  0
   -3.4469   -1.7401    4.6070 H   0  0  0  0  0  0  0  0  0  0  0  0
   -2.1973   -3.5304    6.1458 H   0  0  0  0  0  0  0  0  0  0  0  0
   -3.6607   -3.5672    5.1597 H   0  0  0  0  0  0  0  0  0  0  0  0
   -1.4009   -2.3294    2.4252 H   0  0  0  0  0  0  0  0  0  0  0  0
   -0.3202   -5.6900    0.8893 H   0  0  0  0  0  0  0  0  0  0  0  0
   -1.4811   -6.0038    4.4988 H   0  0  0  0  0  0  0  0  0  0  0  0
    1.7754   -5.9007    3.8858 H   0  0  0  0  0  0  0  0  0  0  0  0
    2.0455   -4.9491    2.4788 H   0  0  0  0  0  0  0  0  0  0  0  0
    0.7742   -3.7910    4.5898 H   0  0  0  0  0  0  0  0  0  0  0  0
    0.5908    0.1714    6.4185 H   0  0  0  0  0  0  0  0  0  0  0  0
    2.2213    1.9248    4.2695 H   0  0  0  0  0  0  0  0  0  0  0  0
    2.9686    0.8807    2.9543 H   0  0  0  0  0  0  0  0  0  0  0  0
    3.6268    4.5513    3.1442 H   0  0  0  0  0  0  0  0  0  0  0  0
    7.0674    4.0774    1.8163 H   0  0  0  0  0  0  0  0  0  0  0  0
    6.0450    2.4475    5.0123 H   0  0  0  0  0  0  0  0  0  0  0  0
    7.8515    1.0108    1.5862 H   0  0  0  0  0  0  0  0  0  0  0  0
    7.9091    0.5565    3.2412 H   0  0  0  0  0  0  0  0  0  0  0  0
    6.4731    0.2344   -1.1295 H   0  0  0  0  0  0  0  0  0  0  0  0
    2.0843   -0.3663   -0.9401 H   0  0  0  0  0  0  0  0  0  0  0  0
    1.0039    1.2215   -1.0842 H   0  0  0  0  0  0  0  0  0  0  0  0
    1.4453    1.8989    0.4262 H   0  0  0  0  0  0  0  0  0  0  0  0
   -1.4087   -0.9848   -0.6187 H   0  0  0  0  0  0  0  0  0  0  0  0
   -3.8073    0.6105    1.7184 H   0  0  0  0  0  0  0  0  0  0  0  0
   -0.2900    0.1276    2.7637 H   0  0  0  0  0  0  0  0  0  0  0  0
   -2.6419    3.5855    2.4356 H   0  0  0  0  0  0  0  0  0  0  0  0
   -0.9232    3.5652    2.3823 H   0  0  0  0  0  0  0  0  0  0  0  0
   -5.0702    2.1293    4.1784 H   0  0  0  0  0  0  0  0  0  0  0  0
   -2.8488    2.8138   -1.0501 H   0  0  0  0  0  0  0  0  0  0  0  0
   -2.6699    1.5182   -2.1866 H   0  0  0  0  0  0  0  0  0  0  0  0
   -5.0605    1.9321   -0.6450 H   0  0  0  0  0  0  0  0  0  0  0  0
   -4.3559    3.0776   -2.2686 H   0  0  0  0  0  0  0  0  0  0  0  0
   -2.2074    4.4439   -3.4147 H   0  0  0  0  0  0  0  0  0  0  0  0
   -1.6458    3.3095   -6.1643 H   0  0  0  0  0  0  0  0  0  0  0  0
   -2.4562    2.7147   -7.6063 H   0  0  0  0  0  0  0  0  0  0  0  0
    0.4405    0.7087   -7.1730 H   0  0  0  0  0  0  0  0  0  0  0  0
   -1.1756    0.0395   -3.3193 H   0  0  0  0  0  0  0  0  0  0  0  0
   -3.1586   -0.4716   -6.5310 H   0  0  0  0  0  0  0  0  0  0  0  0
   -1.2908   -2.8859   -6.4028 H   0  0  0  0  0  0  0  0  0  0  0  0
    0.0732   -2.6273   -5.3968 H   0  0  0  0  0  0  0  0  0  0  0  0
   -4.4096   -1.5822   -3.9961 H   0  0  0  0  0  0  0  0  0  0  0  0
   -3.4622   -2.5358   -1.2895 H   0  0  0  0  0  0  0  0  0  0  0  0
   -3.5373   -2.6152    0.6598 H   0  0  0  0  0  0  0  0  0  0  0  0
   -3.1697   -5.4315    0.2216 H   0  0  0  0  0  0  0  0  0  0  0  0
   -4.0023   -5.0264    1.6876 H   0  0  0  0  0  0  0  0  0  0  0  0
    1.8830    0.4699   -3.5083 H   0  0  0  0  0  0  0  0  0  0  0  0
    2.3751    1.1470   -4.9932 H   0  0  0  0  0  0  0  0  0  0  0  0
    1.6426    2.9995   -4.6950 H   0  0  0  0  0  0  0  0  0  0  0  0
    4.8926    5.0149   -2.9475 H   0  0  0  0  0  0  0  0  0  0  0  0
    3.9407    2.2502    0.1624 H   0  0  0  0  0  0  0  0  0  0  0  0
    5.1012    3.3287   -0.5397 H   0  0  0  0  0  0  0  0  0  0  0  0
  1  2  2  0
  2  3  1  0
  3  4  1  0
  4  5  1  0
  5  6  2  0
  6  7  1  0
  7  8  2  0
  8  9  1  0
  9 10  2  0
  9 11  1  0
 11 12  1  0
 12 13  1  0
 13 14  2  0
 13 15  1  0
 15 16  1  0
 16 17  2  0
 17 18  1  0
 18 19  2  0
 19 20  1  0
 20 21  1  0
 21 22  1  0
 22 23  2  0
 23 24  1  0
 24 25  2  0
 25 26  1  0
 25 27  1  0
 27 28  1  0
 28 29  1  0
 29 30  2  0
 30 31  1  0
 31 32  2  0
 32 33  1  0
 33 34  2  0
 33 35  1  0
 35 36  1  0
 36 37  1  0
 37 38  1  0
 38 39  2  0
 39 40  1  0
 40 41  2  0
 41 42  1  0
 41 43  1  0
 43 44  1  0
 44 45  1  0
 45 46  2  0
 46 47  1  0
 47 48  2  0
 48 49  1  0
 49 50  1  0
 39 51  1  0
 51 52  1  0
 52 53  1  0
 53 54  1  0
 54 55  2  0
 55 56  1  0
 56 57  2  0
 57 58  1  0
 58 59  1  0
 59 60  1  0
 60 61  2  0
 61 62  1  0
 62 63  2  0
 63 64  1  0
 64 65  2  0
 64 66  1  0
 66 67  1  0
 67 68  2  0
 68 69  1  0
 69 70  2  0
 70 71  1  0
 71 72  1  0
 72 73  1  0
 73 74  1  0
 71 75  2  0
 75 76  1  0
 62 77  1  0
 77 78  1  0
 78 79  1  0
 79 80  2  0
 79 81  1  0
 81 82  1  0
 82 83  2  0
 83 84  1  0
 84 85  2  0
 85 86  1  0
 85 87  1  0
 87 88  1  0
 58 89  2  0
 89 90  1  0
 32 91  1  0
 91 92  1  0
 19 93  1  0
 93 94  1  0
 48  2  1  0
 89 54  1  0
 10  5  1  0
 93 15  2  0
 74  7  1  0
 87 81  2  0
 26 21  2  0
 91 28  2  0
 86 23  1  0
 42 37  2  0
 49 44  2  0
 65 60  1  0
 75 67  1  0
  3 95  1  0
  4 96  1  0
  4 97  1  0
  6 98  1  0
  8 99  1  0
 10100  1  0
 11101  1  0
 11102  1  0
 12103  1  0
 17104  1  0
 20105  1  0
 20106  1  0
 22107  1  0
 24108  1  0
 26109  1  0
 27110  1  0
 27111  1  0
 30112  1  0
 35113  1  0
 36114  1  0
 36115  1  0
 38116  1  0
 40117  1  0
 42118  1  0
 43119  1  0
 43120  1  0
 46121  1  0
 51122  1  0
 51123  1  0
 52124  1  0
 53125  1  0
 56126  1  0
 59127  1  0
 59128  1  0
 61129  1  0
 63130  1  0
 65131  1  0
 66132  1  0
 66133  1  0
 69134  1  0
 72135  1  0
 73136  1  0
 74137  1  0
 74138  1  0
 77139  1  0
 77140  1  0
 78141  1  0
 83142  1  0
 86143  1  0
 86144  1  0
M  END
