
     RDKit          3D

156168  0  0  0  0  0  0  0  0999 V2000
    8.0751   -0.8902    2.4284 C   0  0  0  0  0  0  0  0  0  0  0  0
    7.6097   -0.1437    3.5083 C   0  0  0  0  0  0  0  0  0  0  0  0
    6.7850    0.9228    3.2385 C   0  0  0  0  0  0  0  0  0  0  0  0
    6.7702    1.3182    1.9397 N   0  0  0  0  0  0  0  0  0  0  0  0
    6.6240    0.3076    1.0433 C   0  0  0  0  0  0  0  0  0  0  0  0
    7.3200   -0.8264    1.3030 N   0  0  0  0  0  0  0  0  0  0  0  0
    6.0490   -0.7557    0.2981 N   0  0  0  0  0  0  0  0  0  0  0  0
    5.1354   -1.6085   -0.2889 N   0  0  0  0  0  0  0  0  0  0  0  0
    3.7646   -1.0913   -0.2329 C   0  0  0  0  0  0  0  0  0  0  0  0
    3.3394   -0.4879   -1.5240 C   0  0  0  0  0  0  0  0  0  0  0  0
    2.3488   -0.9661   -2.4400 C   0  0  0  0  0  0  0  0  0  0  0  0
    1.0183   -0.5000   -2.2486 C   0  0  0  0  0  0  0  0  0  0  0  0
    1.2745    0.8732   -2.5318 C   0  0  0  0  0  0  0  0  0  0  0  0
    2.0797    1.5879   -1.6028 C   0  0  0  0  0  0  0  0  0  0  0  0
    3.2925    0.8936   -1.8756 C   0  0  0  0  0  0  0  0  0  0  0  0
    1.6563    2.2372   -0.3206 C   0  0  0  0  0  0  0  0  0  0  0  0
    1.3070    1.3932    0.7807 N   0  0  0  0  0  0  0  0  0  0  0  0
    0.1811    1.7912    1.4846 N   0  0  0  0  0  0  0  0  0  0  0  0
   -1.1713    1.7685    1.9559 C   0  0  0  0  0  0  0  0  0  0  0  0
   -0.7409    3.0521    1.9037 N   0  0  0  0  0  0  0  0  0  0  0  0
   -1.6531    4.0221    2.1590 C   0  0  0  0  0  0  0  0  0  0  0  0
   -2.9719    3.8125    1.7644 C   0  0  0  0  0  0  0  0  0  0  0  0
   -3.2808    2.5165    1.4484 C   0  0  0  0  0  0  0  0  0  0  0  0
   -2.5107    1.5609    2.0315 N   0  0  0  0  0  0  0  0  0  0  0  0
   -3.9705    3.3500    0.5073 N   0  0  0  0  0  0  0  0  0  0  0  0
   -4.6821    3.8703   -0.6118 C   0  0  0  0  0  0  0  0  0  0  0  0
   -3.9031    4.5856   -1.7010 C   0  0  0  0  0  0  0  0  0  0  0  0
   -2.7724    5.4637   -1.6135 C   0  0  0  0  0  0  0  0  0  0  0  0
   -1.4840    4.8513   -1.6483 C   0  0  0  0  0  0  0  0  0  0  0  0
   -1.8153    3.4753   -1.9045 C   0  0  0  0  0  0  0  0  0  0  0  0
   -2.4242    3.4342   -3.2051 C   0  0  0  0  0  0  0  0  0  0  0  0
   -3.5838    4.2536   -3.0696 C   0  0  0  0  0  0  0  0  0  0  0  0
   -1.7645    3.0249   -4.4424 C   0  0  0  0  0  0  0  0  0  0  0  0
   -2.1080    1.6582   -4.8722 N   0  0  0  0  0  0  0  0  0  0  0  0
   -2.7311    0.4403   -5.2086 C   0  0  0  0  0  0  0  0  0  0  0  0
   -1.6167    0.6722   -6.0064 C   0  0  0  0  0  0  0  0  0  0  0  0
   -0.9493   -0.4338   -6.5222 C   0  0  0  0  0  0  0  0  0  0  0  0
   -1.0893   -1.6097   -5.8623 N   0  0  0  0  0  0  0  0  0  0  0  0
   -2.2503   -1.7769   -5.2060 C   0  0  0  0  0  0  0  0  0  0  0  0
   -3.2123   -0.8221   -5.2409 N   0  0  0  0  0  0  0  0  0  0  0  0
   -1.3999   -2.8778   -4.8634 N   0  0  0  0  0  0  0  0  0  0  0  0
   -0.8072   -3.8338   -4.0625 N   0  0  0  0  0  0  0  0  0  0  0  0
   -1.1873   -5.1352   -4.5326 C   0  0  0  0  0  0  0  0  0  0  0  0
   -0.6412   -6.3358   -3.8595 C   0  0  0  0  0  0  0  0  0  0  0  0
   -1.3266   -7.5144   -3.4452 C   0  0  0  0  0  0  0  0  0  0  0  0
   -1.8432   -7.5097   -2.1203 C   0  0  0  0  0  0  0  0  0  0  0  0
   -0.6003   -7.4389   -1.4290 C   0  0  0  0  0  0  0  0  0  0  0  0
    0.2113   -6.2856   -1.6227 C   0  0  0  0  0  0  0  0  0  0  0  0
    0.4851   -6.4862   -3.0065 C   0  0  0  0  0  0  0  0  0  0  0  0
    0.1849   -5.0265   -0.8334 C   0  0  0  0  0  0  0  0  0  0  0  0
    0.9581   -5.0658    0.4097 N   0  0  0  0  0  0  0  0  0  0  0  0
    1.7780   -5.1524    1.5843 C   0  0  0  0  0  0  0  0  0  0  0  0
    0.4790   -4.8873    1.9980 C   0  0  0  0  0  0  0  0  0  0  0  0
    0.2837   -4.1266    3.1446 C   0  0  0  0  0  0  0  0  0  0  0  0
    1.2897   -3.2738    3.4566 N   0  0  0  0  0  0  0  0  0  0  0  0
    2.5294   -3.6746    3.1528 C   0  0  0  0  0  0  0  0  0  0  0  0
    2.7246   -4.8518    2.5089 N   0  0  0  0  0  0  0  0  0  0  0  0
    2.6006   -2.2817    3.3626 N   0  0  0  0  0  0  0  0  0  0  0  0
    3.1037   -1.0812    3.8286 N   0  0  0  0  0  0  0  0  0  0  0  0
    2.1552   -0.2563    4.4921 C   0  0  0  0  0  0  0  0  0  0  0  0
    2.5318    0.4700    5.7400 C   0  0  0  0  0  0  0  0  0  0  0  0
    2.5111    1.8513    6.0724 C   0  0  0  0  0  0  0  0  0  0  0  0
    3.6962    2.5596    5.7471 C   0  0  0  0  0  0  0  0  0  0  0  0
    4.5781    1.9193    6.6599 C   0  0  0  0  0  0  0  0  0  0  0  0
    4.7972    0.5333    6.4555 C   0  0  0  0  0  0  0  0  0  0  0  0
    3.4664    0.1079    6.7420 C   0  0  0  0  0  0  0  0  0  0  0  0
    5.8817   -0.1460    5.7454 C   0  0  0  0  0  0  0  0  0  0  0  0
    6.4062    0.4196    4.5184 N   0  0  0  0  0  0  0  0  0  0  0  0
    4.0170    3.3404    4.5507 C   0  0  0  0  0  0  0  0  0  0  0  0
    3.2785    3.1620    3.3306 N   0  0  0  0  0  0  0  0  0  0  0  0
    2.8618    4.3781    2.7455 N   0  0  0  0  0  0  0  0  0  0  0  0
    2.2323    5.6070    2.3509 C   0  0  0  0  0  0  0  0  0  0  0  0
    3.3153    5.4443    1.5740 N   0  0  0  0  0  0  0  0  0  0  0  0
    3.2392    5.9790    0.3285 C   0  0  0  0  0  0  0  0  0  0  0  0
    2.0127    6.3344   -0.2259 C   0  0  0  0  0  0  0  0  0  0  0  0
    0.9545    6.4154    0.6398 C   0  0  0  0  0  0  0  0  0  0  0  0
    1.2604    6.4699    1.9600 N   0  0  0  0  0  0  0  0  0  0  0  0
    0.4956    5.9307   -0.6298 N   0  0  0  0  0  0  0  0  0  0  0  0
   -0.1832    5.5197   -1.8648 C   0  0  0  0  0  0  0  0  0  0  0  0
   -3.1698   -7.0222   -1.6575 C   0  0  0  0  0  0  0  0  0  0  0  0
   -3.3891   -5.6183   -1.5684 N   0  0  0  0  0  0  0  0  0  0  0  0
   -3.7888   -4.2916   -1.7824 C   0  0  0  0  0  0  0  0  0  0  0  0
   -3.9017   -4.5268   -0.4166 C   0  0  0  0  0  0  0  0  0  0  0  0
   -3.5693   -3.4382    0.3835 C   0  0  0  0  0  0  0  0  0  0  0  0
   -3.1168   -2.2824   -0.1624 N   0  0  0  0  0  0  0  0  0  0  0  0
   -3.3612   -2.1139   -1.4851 C   0  0  0  0  0  0  0  0  0  0  0  0
   -4.1079   -3.0271   -2.1544 N   0  0  0  0  0  0  0  0  0  0  0  0
   -2.3694   -1.1667   -1.0688 N   0  0  0  0  0  0  0  0  0  0  0  0
   -1.2381   -0.3836   -1.1630 N   0  0  0  0  0  0  0  0  0  0  0  0
   -0.0150   -1.0913   -1.3373 C   0  0  0  0  0  0  0  0  0  0  0  0
    8.4652   -1.8847    2.6530 H   0  0  0  0  0  0  0  0  0  0  0  0
    7.6783   -0.4940    4.5322 H   0  0  0  0  0  0  0  0  0  0  0  0
    6.7795   -1.4603    0.4862 H   0  0  0  0  0  0  0  0  0  0  0  0
    5.2073   -2.5930   -0.0407 H   0  0  0  0  0  0  0  0  0  0  0  0
    3.7953   -0.4461    0.6823 H   0  0  0  0  0  0  0  0  0  0  0  0
    3.1817   -1.9107    0.2088 H   0  0  0  0  0  0  0  0  0  0  0  0
    2.6069   -1.7165   -3.2168 H   0  0  0  0  0  0  0  0  0  0  0  0
    0.8085    1.3762   -3.4074 H   0  0  0  0  0  0  0  0  0  0  0  0
    4.1832    1.4186   -2.2827 H   0  0  0  0  0  0  0  0  0  0  0  0
    0.8241    2.9523   -0.3841 H   0  0  0  0  0  0  0  0  0  0  0  0
    2.3934    2.9576    0.1162 H   0  0  0  0  0  0  0  0  0  0  0  0
    2.1140    1.1433    1.3711 H   0  0  0  0  0  0  0  0  0  0  0  0
    0.3231    2.8141    1.4883 H   0  0  0  0  0  0  0  0  0  0  0  0
   -1.3777    5.0315    2.4369 H   0  0  0  0  0  0  0  0  0  0  0  0
   -3.5717    4.5765    1.2864 H   0  0  0  0  0  0  0  0  0  0  0  0
   -3.7550    4.2263    1.0116 H   0  0  0  0  0  0  0  0  0  0  0  0
   -5.2554    2.9866   -0.9544 H   0  0  0  0  0  0  0  0  0  0  0  0
   -5.5347    4.4793   -0.2100 H   0  0  0  0  0  0  0  0  0  0  0  0
   -2.9626    6.5058   -1.2686 H   0  0  0  0  0  0  0  0  0  0  0  0
   -1.6336    2.6354   -1.2208 H   0  0  0  0  0  0  0  0  0  0  0  0
   -4.3927    4.3787   -3.8216 H   0  0  0  0  0  0  0  0  0  0  0  0
   -1.7478    3.6643   -5.3624 H   0  0  0  0  0  0  0  0  0  0  0  0
   -0.6407    2.9401   -4.4689 H   0  0  0  0  0  0  0  0  0  0  0  0
   -1.5562    1.8000   -5.7281 H   0  0  0  0  0  0  0  0  0  0  0  0
   -1.1586    1.6623   -5.9631 H   0  0  0  0  0  0  0  0  0  0  0  0
   -0.1452   -0.2796   -7.2120 H   0  0  0  0  0  0  0  0  0  0  0  0
   -0.5634   -2.4897   -5.3304 H   0  0  0  0  0  0  0  0  0  0  0  0
    0.2263   -3.7298   -4.1206 H   0  0  0  0  0  0  0  0  0  0  0  0
   -2.2853   -4.9666   -4.5278 H   0  0  0  0  0  0  0  0  0  0  0  0
   -0.9399   -5.0916   -5.6265 H   0  0  0  0  0  0  0  0  0  0  0  0
   -1.5058   -8.3604   -4.1433 H   0  0  0  0  0  0  0  0  0  0  0  0
   -0.2875   -8.2502   -0.7346 H   0  0  0  0  0  0  0  0  0  0  0  0
    1.5168   -6.6231   -3.3884 H   0  0  0  0  0  0  0  0  0  0  0  0
    0.6715   -4.1288   -1.2924 H   0  0  0  0  0  0  0  0  0  0  0  0
   -0.7802   -4.5634   -0.5947 H   0  0  0  0  0  0  0  0  0  0  0  0
    0.0864   -5.2444    0.9744 H   0  0  0  0  0  0  0  0  0  0  0  0
   -0.3253   -5.1372    1.3137 H   0  0  0  0  0  0  0  0  0  0  0  0
   -0.7256   -3.8087    3.3933 H   0  0  0  0  0  0  0  0  0  0  0  0
    1.6368   -2.2260    3.7289 H   0  0  0  0  0  0  0  0  0  0  0  0
    3.7569   -0.6022    3.1891 H   0  0  0  0  0  0  0  0  0  0  0  0
    1.8609    0.3648    3.6118 H   0  0  0  0  0  0  0  0  0  0  0  0
    1.2252   -0.8719    4.6166 H   0  0  0  0  0  0  0  0  0  0  0  0
    1.5953    2.3492    6.4543 H   0  0  0  0  0  0  0  0  0  0  0  0
    5.0872    2.4821    7.4739 H   0  0  0  0  0  0  0  0  0  0  0  0
    3.2231   -0.5809    7.5774 H   0  0  0  0  0  0  0  0  0  0  0  0
    5.7033   -1.1920    5.3795 H   0  0  0  0  0  0  0  0  0  0  0  0
    6.7850   -0.3672    6.3801 H   0  0  0  0  0  0  0  0  0  0  0  0
    7.2597   -0.1974    4.5567 H   0  0  0  0  0  0  0  0  0  0  0  0
    5.0316    3.2541    4.0878 H   0  0  0  0  0  0  0  0  0  0  0  0
    3.9711    4.4553    4.7106 H   0  0  0  0  0  0  0  0  0  0  0  0
    2.3762    2.6912    3.6072 H   0  0  0  0  0  0  0  0  0  0  0  0
    3.6909    4.4989    2.1201 H   0  0  0  0  0  0  0  0  0  0  0  0
    4.0980    5.9619   -0.3408 H   0  0  0  0  0  0  0  0  0  0  0  0
    1.7715    6.2150   -1.2680 H   0  0  0  0  0  0  0  0  0  0  0  0
    1.3121    6.2664   -1.1538 H   0  0  0  0  0  0  0  0  0  0  0  0
    0.6457    4.8926   -2.3026 H   0  0  0  0  0  0  0  0  0  0  0  0
   -0.0685    6.2865   -2.6732 H   0  0  0  0  0  0  0  0  0  0  0  0
   -3.5268   -7.4362   -0.6754 H   0  0  0  0  0  0  0  0  0  0  0  0
   -4.0596   -7.4321   -2.2091 H   0  0  0  0  0  0  0  0  0  0  0  0
   -3.3672   -5.5525   -0.5164 H   0  0  0  0  0  0  0  0  0  0  0  0
   -3.6236   -5.5088   -0.0324 H   0  0  0  0  0  0  0  0  0  0  0  0
   -3.3722   -3.6046    1.4317 H   0  0  0  0  0  0  0  0  0  0  0  0
   -2.3285   -1.4277   -0.0702 H   0  0  0  0  0  0  0  0  0  0  0  0
   -1.4324    0.3580   -1.8550 H   0  0  0  0  0  0  0  0  0  0  0  0
    0.2665   -1.2653   -0.2860 H   0  0  0  0  0  0  0  0  0  0  0  0
   -0.4281   -2.0692   -1.6892 H   0  0  0  0  0  0  0  0  0  0  0  0
  1  2  2  0
  2  3  1  0
  3  4  2  0
  4  5  1  0
  5  6  2  0
  5  7  1  0
  7  8  1  0
  8  9  1  0
  9 10  1  0
 10 11  1  0
 11 12  2  0
 12 13  1  0
 13 14  2  0
 14 15  1  0
 14 16  1  0
 16 17  1  0
 17 18  1  0
 18 19  1  0
 19 20  1  0
 20 21  2  0
 21 22  1  0
 22 23  2  0
 23 24  1  0
 23 25  1  0
 25 26  1  0
 26 27  1  0
 27 28  1  0
 28 29  2  0
 29 30  1  0
 30 31  2  0
 31 32  1  0
 31 33  1  0
 33 34  1  0
 34 35  1  0
 35 36  1  0
 36 37  2  0
 37 38  1  0
 38 39  2  0
 39 40  1  0
 39 41  1  0
 41 42  1  0
 42 43  1  0
 43 44  1  0
 44 45  1  0
 45 46  2  0
 46 47  1  0
 47 48  2  0
 48 49  1  0
 48 50  1  0
 50 51  1  0
 51 52  1  0
 52 53  1  0
 53 54  2  0
 54 55  1  0
 55 56  2  0
 56 57  1  0
 56 58  1  0
 58 59  1  0
 59 60  1  0
 60 61  1  0
 61 62  1  0
 62 63  2  0
 63 64  1  0
 64 65  2  0
 65 66  1  0
 65 67  1  0
 67 68  1  0
 63 69  1  0
 69 70  1  0
 70 71  1  0
 71 72  1  0
 72 73  2  0
 73 74  1  0
 74 75  2  0
 75 76  1  0
 76 77  2  0
 76 78  1  0
 78 79  1  0
 46 80  1  0
 80 81  1  0
 81 82  1  0
 82 83  2  0
 83 84  1  0
 84 85  2  0
 85 86  1  0
 86 87  2  0
 86 88  1  0
 88 89  1  0
 89 90  1  0
  6  1  1  0
 15 10  2  0
 24 19  2  0
 32 27  2  0
 40 35  2  0
 49 44  2  0
 57 52  2  0
 66 61  2  0
 77 72  1  0
 87 82  1  0
 68  3  1  0
 90 12  1  0
 79 29  1  0
  1 91  1  0
  2 92  1  0
  7 93  1  0
  8 94  1  0
  9 95  1  0
  9 96  1  0
 11 97  1  0
 13 98  1  0
 15 99  1  0
 16100  1  0
 16101  1  0
 17102  1  0
 18103  1  0
 21104  1  0
 22105  1  0
 25106  1  0
 26107  1  0
 26108  1  0
 28109  1  0
 30110  1  0
 32111  1  0
 33112  1  0
 33113  1  0
 34114  1  0
 36115  1  0
 37116  1  0
 41117  1  0
 42118  1  0
 43119  1  0
 43120  1  0
 45121  1  0
 47122  1  0
 49123  1  0
 50124  1  0
 50125  1  0
 51126  1  0
 53127  1  0
 54128  1  0
 58129  1  0
 59130  1  0
 60131  1  0
 60132  1  0
 62133  1  0
 64134  1  0
 66135  1  0
 67136  1  0
 67137  1  0
 68138  1  0
 69139  1  0
 69140  1  0
 70141  1  0
 71142  1  0
 74143  1  0
 75144  1  0
 78145  1  0
 79146  1  0
 79147  1  0
 80148  1  0
 80149  1  0
 81150  1  0
 83151  1  0
 84152  1  0
 88153  1  0
 89154  1  0
 90155  1  0
 90156  1  0
M  END
