
     RDKit          3D

240246  0  0  0  0  0  0  0  0999 V2000
    2.0689   -2.8950   -5.7738 O   0  0  0  0  0  0  0  0  0  0  0  0
    1.7743   -3.1366   -6.1858 C   0  0  0  0  0  0  0  0  0  0  0  0
    1.4217   -4.3474   -5.3804 C   0  0  0  0  0  0  0  0  0  0  0  0
   -0.0465   -4.4064   -5.0571 C   0  0  0  0  0  0  0  0  0  0  0  0
   -0.3039   -4.2534   -3.5817 C   0  0  0  0  0  0  0  0  0  0  0  0
   -0.9306   -5.4892   -2.9962 C   0  0  0  0  0  0  0  0  0  0  0  0
   -1.9196   -5.1072   -1.9210 C   0  0  0  0  0  0  0  0  0  0  0  0
   -1.3491   -4.0510   -0.9810 C   0  0  0  0  0  0  0  0  0  0  0  0
   -0.7666   -4.7592    0.1259 N   0  0  0  0  0  0  0  0  0  0  0  0
   -0.7843   -4.0172    1.3657 C   0  0  0  0  0  0  0  0  0  0  0  0
   -0.2280   -2.6039    1.2218 C   0  0  0  0  0  0  0  0  0  0  0  0
   -0.8821   -1.3183    1.2498 C   0  0  0  0  0  0  0  0  0  0  0  0
   -1.0018   -0.7050    2.5338 C   0  0  0  0  0  0  0  0  0  0  0  0
   -0.1997   -1.5614    3.3670 C   0  0  0  0  0  0  0  0  0  0  0  0
    1.1586   -1.5029    2.8971 C   0  0  0  0  0  0  0  0  0  0  0  0
    1.0566   -2.0630    1.5866 C   0  0  0  0  0  0  0  0  0  0  0  0
    2.2910   -0.6964    3.4429 C   0  0  0  0  0  0  0  0  0  0  0  0
    3.3256   -1.4880    4.1164 N   0  0  0  0  0  0  0  0  0  0  0  0
    4.5137   -1.3814    3.2741 C   0  0  0  0  0  0  0  0  0  0  0  0
    5.7587   -1.1106    4.0869 C   0  0  0  0  0  0  0  0  0  0  0  0
    6.7616   -0.4289    3.1909 C   0  0  0  0  0  0  0  0  0  0  0  0
    6.3645    0.9702    2.8136 C   0  0  0  0  0  0  0  0  0  0  0  0
    5.8471    1.6763    4.0359 C   0  0  0  0  0  0  0  0  0  0  0  0
    5.5920    3.1471    3.7949 C   0  0  0  0  0  0  0  0  0  0  0  0
    4.4083    3.6377    4.5664 C   0  0  0  0  0  0  0  0  0  0  0  0
    4.0108    4.4449    3.7022 O   0  0  0  0  0  0  0  0  0  0  0  0
    3.3387    3.8193    5.4485 O   0  0  0  0  0  0  0  0  0  0  0  0
    2.2664    3.7472    6.3852 C   0  0  0  0  0  0  0  0  0  0  0  0
    2.7373    3.0738    7.5589 N   0  0  0  0  0  0  0  0  0  0  0  0
    1.7200    2.3454    8.2766 C   0  0  0  0  0  0  0  0  0  0  0  0
    1.0914    1.2263    7.4518 C   0  0  0  0  0  0  0  0  0  0  0  0
   -0.2152    1.1002    6.8545 C   0  0  0  0  0  0  0  0  0  0  0  0
   -1.2204    0.4824    7.6586 C   0  0  0  0  0  0  0  0  0  0  0  0
   -0.4696    0.0278    8.7989 C   0  0  0  0  0  0  0  0  0  0  0  0
    0.4686   -0.9584    8.3346 C   0  0  0  0  0  0  0  0  0  0  0  0
    1.3137   -0.1964    7.4719 C   0  0  0  0  0  0  0  0  0  0  0  0
    0.3620   -2.4419    8.4043 C   0  0  0  0  0  0  0  0  0  0  0  0
    0.1204   -3.2103    7.1933 N   0  0  0  0  0  0  0  0  0  0  0  0
    1.0007   -4.3752    7.2649 C   0  0  0  0  0  0  0  0  0  0  0  0
    1.4206   -4.7209    5.9469 O   0  0  0  0  0  0  0  0  0  0  0  0
    1.7972   -5.3226    4.7656 C   0  0  0  0  0  0  0  0  0  0  0  0
    3.0431   -5.2447    4.9894 O   0  0  0  0  0  0  0  0  0  0  0  0
    2.0519   -6.2862    3.6492 C   0  0  0  0  0  0  0  0  0  0  0  0
    3.0243   -5.6220    2.6995 C   0  0  0  0  0  0  0  0  0  0  0  0
    3.0497   -6.4396    1.4137 C   0  0  0  0  0  0  0  0  0  0  0  0
    4.0251   -5.8712    0.4148 C   0  0  0  0  0  0  0  0  0  0  0  0
    3.4194   -4.7810   -0.4265 C   0  0  0  0  0  0  0  0  0  0  0  0
    4.0651   -4.7221   -1.7834 C   0  0  0  0  0  0  0  0  0  0  0  0
    5.3069   -4.0075   -1.6527 N   0  0  0  0  0  0  0  0  0  0  0  0
    5.2906   -2.7000   -2.2594 C   0  0  0  0  0  0  0  0  0  0  0  0
    4.1005   -1.8452   -1.8292 C   0  0  0  0  0  0  0  0  0  0  0  0
    4.0062   -0.7403   -0.9066 C   0  0  0  0  0  0  0  0  0  0  0  0
    4.1934    0.5640   -1.4584 C   0  0  0  0  0  0  0  0  0  0  0  0
    4.2524    0.2983   -2.8683 C   0  0  0  0  0  0  0  0  0  0  0  0
    2.9799   -0.2385   -3.2779 C   0  0  0  0  0  0  0  0  0  0  0  0
    2.9077   -1.4570   -2.5382 C   0  0  0  0  0  0  0  0  0  0  0  0
    1.8360    0.4883   -3.9083 C   0  0  0  0  0  0  0  0  0  0  0  0
    0.7783    0.9569   -3.0380 N   0  0  0  0  0  0  0  0  0  0  0  0
   -0.0063    1.9926   -3.6027 C   0  0  0  0  0  0  0  0  0  0  0  0
   -1.1089    2.2349   -2.7323 O   0  0  0  0  0  0  0  0  0  0  0  0
   -2.1460    2.7743   -1.9675 C   0  0  0  0  0  0  0  0  0  0  0  0
   -1.3798    3.0101   -0.9856 O   0  0  0  0  0  0  0  0  0  0  0  0
   -3.2008    3.6339   -1.3435 C   0  0  0  0  0  0  0  0  0  0  0  0
   -4.4544    3.6919   -2.1665 C   0  0  0  0  0  0  0  0  0  0  0  0
   -4.2249    4.7077   -3.2718 C   0  0  0  0  0  0  0  0  0  0  0  0
   -4.2438    3.9384   -4.5733 C   0  0  0  0  0  0  0  0  0  0  0  0
   -3.3460    4.6085   -5.5768 C   0  0  0  0  0  0  0  0  0  0  0  0
   -3.5058    3.8860   -6.8849 C   0  0  0  0  0  0  0  0  0  0  0  0
   -3.1489    2.5113   -6.6818 N   0  0  0  0  0  0  0  0  0  0  0  0
   -2.7884    1.9590   -7.9942 C   0  0  0  0  0  0  0  0  0  0  0  0
   -2.1436    0.6301   -8.0124 C   0  0  0  0  0  0  0  0  0  0  0  0
   -1.4403   -0.0157   -6.9403 C   0  0  0  0  0  0  0  0  0  0  0  0
   -2.3114   -1.0083   -6.3657 C   0  0  0  0  0  0  0  0  0  0  0  0
   -2.5314   -1.9051   -7.4525 C   0  0  0  0  0  0  0  0  0  0  0  0
   -1.7015   -1.6979   -8.6149 C   0  0  0  0  0  0  0  0  0  0  0  0
   -2.3322   -0.4443   -8.9362 C   0  0  0  0  0  0  0  0  0  0  0  0
   -0.3161   -2.2303   -8.9952 C   0  0  0  0  0  0  0  0  0  0  0  0
    0.7327   -1.2768   -9.1290 N   0  0  0  0  0  0  0  0  0  0  0  0
    1.9489   -1.5304   -8.4394 C   0  0  0  0  0  0  0  0  0  0  0  0
    1.8060   -2.2407   -7.2353 O   0  0  0  0  0  0  0  0  0  0  0  0
   -3.1562   -0.8841   -5.1393 C   0  0  0  0  0  0  0  0  0  0  0  0
   -4.5647   -0.5815   -5.2788 N   0  0  0  0  0  0  0  0  0  0  0  0
   -5.2739   -1.2026   -4.1831 C   0  0  0  0  0  0  0  0  0  0  0  0
   -5.0995   -0.4074   -2.9173 C   0  0  0  0  0  0  0  0  0  0  0  0
   -5.4544   -1.1796   -1.6782 C   0  0  0  0  0  0  0  0  0  0  0  0
   -4.7719   -0.5255   -0.5035 C   0  0  0  0  0  0  0  0  0  0  0  0
   -5.0075   -1.2850    0.7939 C   0  0  0  0  0  0  0  0  0  0  0  0
   -5.4661   -0.3437    1.8731 C   0  0  0  0  0  0  0  0  0  0  0  0
   -5.0166   -0.8537    3.2062 C   0  0  0  0  0  0  0  0  0  0  0  0
   -6.0287   -1.5773    3.3377 O   0  0  0  0  0  0  0  0  0  0  0  0
   -4.5400   -0.9979    4.4938 O   0  0  0  0  0  0  0  0  0  0  0  0
   -4.1787   -0.8265    5.8446 C   0  0  0  0  0  0  0  0  0  0  0  0
   -2.7568   -0.7646    6.0550 N   0  0  0  0  0  0  0  0  0  0  0  0
   -2.5816    0.0773    7.2375 C   0  0  0  0  0  0  0  0  0  0  0  0
    4.0281    1.8731   -0.7987 C   0  0  0  0  0  0  0  0  0  0  0  0
    3.4577    2.9655   -1.5956 N   0  0  0  0  0  0  0  0  0  0  0  0
    3.9723    4.2489   -1.2327 C   0  0  0  0  0  0  0  0  0  0  0  0
    2.9186    5.0300   -0.6919 O   0  0  0  0  0  0  0  0  0  0  0  0
    1.9828    6.0177   -0.3772 C   0  0  0  0  0  0  0  0  0  0  0  0
    2.5854    6.3766    0.6759 O   0  0  0  0  0  0  0  0  0  0  0  0
    0.8589    6.9302   -0.0884 C   0  0  0  0  0  0  0  0  0  0  0  0
    0.3746    6.8163    1.3437 C   0  0  0  0  0  0  0  0  0  0  0  0
   -1.0612    6.3690    1.2939 C   0  0  0  0  0  0  0  0  0  0  0  0
   -1.2956    5.3872    2.4103 C   0  0  0  0  0  0  0  0  0  0  0  0
   -0.3787    4.1735    2.3056 C   0  0  0  0  0  0  0  0  0  0  0  0
   -1.1913    2.9915    2.7437 C   0  0  0  0  0  0  0  0  0  0  0  0
   -0.5446    1.7696    2.3564 N   0  0  0  0  0  0  0  0  0  0  0  0
   -1.4191    0.6966    2.8129 C   0  0  0  0  0  0  0  0  0  0  0  0
    1.7484   -5.2836   -5.8616 H   0  0  0  0  0  0  0  0  0  0  0  0
    1.9722   -4.2601   -4.4330 H   0  0  0  0  0  0  0  0  0  0  0  0
   -0.5568   -3.6303   -5.6652 H   0  0  0  0  0  0  0  0  0  0  0  0
   -0.4527   -5.3762   -5.3790 H   0  0  0  0  0  0  0  0  0  0  0  0
   -0.9521   -3.3503   -3.4616 H   0  0  0  0  0  0  0  0  0  0  0  0
    0.6862   -4.1288   -3.0847 H   0  0  0  0  0  0  0  0  0  0  0  0
   -1.4889   -6.0714   -3.7551 H   0  0  0  0  0  0  0  0  0  0  0  0
   -0.1939   -6.1878   -2.5516 H   0  0  0  0  0  0  0  0  0  0  0  0
   -2.8974   -4.7808   -2.3277 H   0  0  0  0  0  0  0  0  0  0  0  0
   -2.1346   -6.0472   -1.3520 H   0  0  0  0  0  0  0  0  0  0  0  0
   -0.5149   -3.4911   -1.4750 H   0  0  0  0  0  0  0  0  0  0  0  0
   -2.1505   -3.3679   -0.6549 H   0  0  0  0  0  0  0  0  0  0  0  0
   -1.2690   -5.6395    0.3147 H   0  0  0  0  0  0  0  0  0  0  0  0
   -1.8094   -4.1027    1.7417 H   0  0  0  0  0  0  0  0  0  0  0  0
   -0.3029   -4.6627    2.1109 H   0  0  0  0  0  0  0  0  0  0  0  0
   -1.4399   -1.0189    0.3375 H   0  0  0  0  0  0  0  0  0  0  0  0
   -0.5595   -2.1622    4.2135 H   0  0  0  0  0  0  0  0  0  0  0  0
    1.9178   -2.3171    0.9328 H   0  0  0  0  0  0  0  0  0  0  0  0
    2.7075    0.1435    2.8555 H   0  0  0  0  0  0  0  0  0  0  0  0
    2.0506   -0.0368    4.3208 H   0  0  0  0  0  0  0  0  0  0  0  0
    2.9702   -2.4571    4.1833 H   0  0  0  0  0  0  0  0  0  0  0  0
    4.6005   -2.2978    2.6705 H   0  0  0  0  0  0  0  0  0  0  0  0
    4.4295   -0.5374    2.5469 H   0  0  0  0  0  0  0  0  0  0  0  0
    6.1792   -2.0929    4.3640 H   0  0  0  0  0  0  0  0  0  0  0  0
    5.5599   -0.5578    5.0169 H   0  0  0  0  0  0  0  0  0  0  0  0
    6.8103   -1.0201    2.2473 H   0  0  0  0  0  0  0  0  0  0  0  0
    7.7498   -0.4592    3.6717 H   0  0  0  0  0  0  0  0  0  0  0  0
    5.6585    1.0205    1.9724 H   0  0  0  0  0  0  0  0  0  0  0  0
    7.2797    1.5232    2.4824 H   0  0  0  0  0  0  0  0  0  0  0  0
    4.8631    1.2331    4.3230 H   0  0  0  0  0  0  0  0  0  0  0  0
    6.5688    1.5373    4.8625 H   0  0  0  0  0  0  0  0  0  0  0  0
    6.5106    3.6971    4.0964 H   0  0  0  0  0  0  0  0  0  0  0  0
    5.3730    3.2748    2.7074 H   0  0  0  0  0  0  0  0  0  0  0  0
    1.3556    3.3245    5.9434 H   0  0  0  0  0  0  0  0  0  0  0  0
    2.0297    4.8070    6.6504 H   0  0  0  0  0  0  0  0  0  0  0  0
    3.1993    3.6824    8.2484 H   0  0  0  0  0  0  0  0  0  0  0  0
    2.1739    2.0494    9.2342 H   0  0  0  0  0  0  0  0  0  0  0  0
    1.0369    3.1022    8.6744 H   0  0  0  0  0  0  0  0  0  0  0  0
   -0.4063    1.7029    5.9417 H   0  0  0  0  0  0  0  0  0  0  0  0
   -0.5988    0.3618    9.8369 H   0  0  0  0  0  0  0  0  0  0  0  0
    2.2545   -0.5669    7.0114 H   0  0  0  0  0  0  0  0  0  0  0  0
   -0.5633   -2.8499    8.8949 H   0  0  0  0  0  0  0  0  0  0  0  0
    1.0852   -2.9441    9.1017 H   0  0  0  0  0  0  0  0  0  0  0  0
    0.3948   -2.7002    6.3380 H   0  0  0  0  0  0  0  0  0  0  0  0
    1.8886   -4.1219    7.8977 H   0  0  0  0  0  0  0  0  0  0  0  0
    0.4661   -5.2004    7.7627 H   0  0  0  0  0  0  0  0  0  0  0  0
    1.1247   -6.5930    3.1417 H   0  0  0  0  0  0  0  0  0  0  0  0
    2.5676   -7.2066    4.0235 H   0  0  0  0  0  0  0  0  0  0  0  0
    4.0495   -5.7081    3.1308 H   0  0  0  0  0  0  0  0  0  0  0  0
    2.7755   -4.5705    2.4992 H   0  0  0  0  0  0  0  0  0  0  0  0
    2.0247   -6.5144    1.0094 H   0  0  0  0  0  0  0  0  0  0  0  0
    3.3453   -7.4808    1.6998 H   0  0  0  0  0  0  0  0  0  0  0  0
    4.9125   -5.5097    0.9888 H   0  0  0  0  0  0  0  0  0  0  0  0
    4.4070   -6.6890   -0.2381 H   0  0  0  0  0  0  0  0  0  0  0  0
    2.3396   -4.9427   -0.5761 H   0  0  0  0  0  0  0  0  0  0  0  0
    3.6469   -3.8150    0.0838 H   0  0  0  0  0  0  0  0  0  0  0  0
    3.4542   -4.2221   -2.5476 H   0  0  0  0  0  0  0  0  0  0  0  0
    4.2718   -5.7573   -2.1559 H   0  0  0  0  0  0  0  0  0  0  0  0
    5.6241   -3.9004   -0.6587 H   0  0  0  0  0  0  0  0  0  0  0  0
    5.4056   -2.8676   -3.3361 H   0  0  0  0  0  0  0  0  0  0  0  0
    6.2865   -2.2738   -2.0768 H   0  0  0  0  0  0  0  0  0  0  0  0
    4.0464   -0.9914    0.1753 H   0  0  0  0  0  0  0  0  0  0  0  0
    5.1180    0.4603   -3.5270 H   0  0  0  0  0  0  0  0  0  0  0  0
    2.1190   -2.2314   -2.6515 H   0  0  0  0  0  0  0  0  0  0  0  0
    2.0892    1.4979   -4.3326 H   0  0  0  0  0  0  0  0  0  0  0  0
    1.4680    0.0855   -4.8882 H   0  0  0  0  0  0  0  0  0  0  0  0
    0.1620    0.1302   -2.8273 H   0  0  0  0  0  0  0  0  0  0  0  0
   -0.4163    1.8025   -4.6020 H   0  0  0  0  0  0  0  0  0  0  0  0
    0.6353    2.9048   -3.6967 H   0  0  0  0  0  0  0  0  0  0  0  0
   -3.4083    3.1888   -0.3412 H   0  0  0  0  0  0  0  0  0  0  0  0
   -2.8132    4.6592   -1.1332 H   0  0  0  0  0  0  0  0  0  0  0  0
   -4.6802    2.6880   -2.5494 H   0  0  0  0  0  0  0  0  0  0  0  0
   -5.2813    3.9956   -1.4842 H   0  0  0  0  0  0  0  0  0  0  0  0
   -5.0539    5.4392   -3.2397 H   0  0  0  0  0  0  0  0  0  0  0  0
   -3.2711    5.2705   -3.1272 H   0  0  0  0  0  0  0  0  0  0  0  0
   -5.2731    3.9695   -4.9578 H   0  0  0  0  0  0  0  0  0  0  0  0
   -3.9048    2.8932   -4.4542 H   0  0  0  0  0  0  0  0  0  0  0  0
   -3.7487    5.6417   -5.7250 H   0  0  0  0  0  0  0  0  0  0  0  0
   -2.3018    4.7075   -5.2452 H   0  0  0  0  0  0  0  0  0  0  0  0
   -2.8942    4.3711   -7.6761 H   0  0  0  0  0  0  0  0  0  0  0  0
   -4.5636    3.9578   -7.1872 H   0  0  0  0  0  0  0  0  0  0  0  0
   -2.2800    2.4824   -6.0912 H   0  0  0  0  0  0  0  0  0  0  0  0
   -3.7999    2.1257   -8.3678 H   0  0  0  0  0  0  0  0  0  0  0  0
   -2.1765    2.7965   -8.4258 H   0  0  0  0  0  0  0  0  0  0  0  0
   -0.4132    0.1963   -6.6099 H   0  0  0  0  0  0  0  0  0  0  0  0
   -3.0812   -2.8688   -7.3964 H   0  0  0  0  0  0  0  0  0  0  0  0
   -2.7113   -0.3257   -9.9748 H   0  0  0  0  0  0  0  0  0  0  0  0
    0.1377   -2.9086   -8.2726 H   0  0  0  0  0  0  0  0  0  0  0  0
   -0.3540   -2.8788   -9.9097 H   0  0  0  0  0  0  0  0  0  0  0  0
    0.9659   -1.0257  -10.1205 H   0  0  0  0  0  0  0  0  0  0  0  0
    2.3972   -0.5408   -8.1679 H   0  0  0  0  0  0  0  0  0  0  0  0
    2.7043   -2.0036   -9.1168 H   0  0  0  0  0  0  0  0  0  0  0  0
   -2.9317   -1.6154   -4.3180 H   0  0  0  0  0  0  0  0  0  0  0  0
   -2.9638    0.0212   -4.5017 H   0  0  0  0  0  0  0  0  0  0  0  0
   -4.9355   -0.9353   -6.1895 H   0  0  0  0  0  0  0  0  0  0  0  0
   -6.3525   -1.2402   -4.4389 H   0  0  0  0  0  0  0  0  0  0  0  0
   -4.8721   -2.2302   -4.0280 H   0  0  0  0  0  0  0  0  0  0  0  0
   -4.0587   -0.0356   -2.7824 H   0  0  0  0  0  0  0  0  0  0  0  0
   -5.7260    0.5157   -3.0105 H   0  0  0  0  0  0  0  0  0  0  0  0
   -5.2187   -2.2468   -1.7880 H   0  0  0  0  0  0  0  0  0  0  0  0
   -6.5563   -1.0544   -1.5271 H   0  0  0  0  0  0  0  0  0  0  0  0
   -3.6878   -0.4428   -0.7369 H   0  0  0  0  0  0  0  0  0  0  0  0
   -5.1665    0.5131   -0.4310 H   0  0  0  0  0  0  0  0  0  0  0  0
   -5.8002   -2.0271    0.5959 H   0  0  0  0  0  0  0  0  0  0  0  0
   -4.0477   -1.7351    1.0901 H   0  0  0  0  0  0  0  0  0  0  0  0
   -6.5688   -0.1930    1.8403 H   0  0  0  0  0  0  0  0  0  0  0  0
   -5.0195    0.6506    1.6386 H   0  0  0  0  0  0  0  0  0  0  0  0
   -4.7232    0.0198    6.3347 H   0  0  0  0  0  0  0  0  0  0  0  0
   -4.5417   -1.7405    6.3798 H   0  0  0  0  0  0  0  0  0  0  0  0
   -2.3025   -1.6795    6.1828 H   0  0  0  0  0  0  0  0  0  0  0  0
   -3.1160   -0.6580    7.8988 H   0  0  0  0  0  0  0  0  0  0  0  0
   -3.3733    0.8707    7.3058 H   0  0  0  0  0  0  0  0  0  0  0  0
    4.9760    2.3450   -0.4222 H   0  0  0  0  0  0  0  0  0  0  0  0
    3.2948    2.0455   -0.0064 H   0  0  0  0  0  0  0  0  0  0  0  0
    3.5812    2.7907   -2.6098 H   0  0  0  0  0  0  0  0  0  0  0  0
    4.4591    4.7193   -2.0990 H   0  0  0  0  0  0  0  0  0  0  0  0
    4.7410    4.0896   -0.4374 H   0  0  0  0  0  0  0  0  0  0  0  0
    1.2068    7.9639   -0.2254 H   0  0  0  0  0  0  0  0  0  0  0  0
    0.0402    6.7539   -0.8253 H   0  0  0  0  0  0  0  0  0  0  0  0
    0.3974    7.7851    1.8800 H   0  0  0  0  0  0  0  0  0  0  0  0
    0.9688    6.0804    1.9072 H   0  0  0  0  0  0  0  0  0  0  0  0
   -1.3104    5.8731    0.3405 H   0  0  0  0  0  0  0  0  0  0  0  0
   -1.7508    7.2108    1.4486 H   0  0  0  0  0  0  0  0  0  0  0  0
   -1.1986    5.8392    3.4131 H   0  0  0  0  0  0  0  0  0  0  0  0
   -2.3645    5.0647    2.3276 H   0  0  0  0  0  0  0  0  0  0  0  0
    0.0570    4.0662    1.2943 H   0  0  0  0  0  0  0  0  0  0  0  0
    0.4902    4.3588    2.9858 H   0  0  0  0  0  0  0  0  0  0  0  0
   -1.1975    3.0075    3.8636 H   0  0  0  0  0  0  0  0  0  0  0  0
   -2.2468    3.0649    2.4405 H   0  0  0  0  0  0  0  0  0  0  0  0
   -0.3052    1.7003    1.3548 H   0  0  0  0  0  0  0  0  0  0  0  0
   -2.5065    0.9410    2.7058 H   0  0  0  0  0  0  0  0  0  0  0  0
   -1.3949    1.0046    3.8930 H   0  0  0  0  0  0  0  0  0  0  0  0
  1  2  2  0
  2  3  1  0
  3  4  1  0
  4  5  1  0
  5  6  1  0
  6  7  1  0
  7  8  1  0
  8  9  1  0
  9 10  1  0
 10 11  1  0
 11 12  2  0
 12 13  1  0
 13 14  2  0
 14 15  1  0
 15 16  2  0
 15 17  1  0
 17 18  1  0
 18 19  1  0
 19 20  1  0
 20 21  1  0
 21 22  1  0
 22 23  1  0
 23 24  1  0
 24 25  1  0
 25 26  2  0
 25 27  1  0
 27 28  1  0
 28 29  1  0
 29 30  1  0
 30 31  1  0
 31 32  1  0
 32 33  2  0
 33 34  1  0
 34 35  2  0
 35 36  1  0
 35 37  1  0
 37 38  1  0
 38 39  1  0
 39 40  1  0
 40 41  1  0
 41 42  2  0
 41 43  1  0
 43 44  1  0
 44 45  1  0
 45 46  1  0
 46 47  1  0
 47 48  1  0
 48 49  1  0
 49 50  1  0
 50 51  1  0
 51 52  2  0
 52 53  1  0
 53 54  2  0
 54 55  1  0
 55 56  2  0
 55 57  1  0
 57 58  1  0
 58 59  1  0
 59 60  1  0
 60 61  1  0
 61 62  2  0
 61 63  1  0
 63 64  1  0
 64 65  1  0
 65 66  1  0
 66 67  1  0
 67 68  1  0
 68 69  1  0
 69 70  1  0
 70 71  1  0
 71 72  1  0
 72 73  2  0
 73 74  1  0
 74 75  2  0
 75 76  1  0
 75 77  1  0
 77 78  1  0
 78 79  1  0
 79 80  1  0
 73 81  1  0
 81 82  1  0
 82 83  1  0
 83 84  1  0
 84 85  1  0
 85 86  1  0
 86 87  1  0
 87 88  1  0
 88 89  1  0
 89 90  2  0
 89 91  1  0
 91 92  1  0
 92 93  1  0
 93 94  1  0
 53 95  1  0
 95 96  1  0
 96 97  1  0
 97 98  1  0
 98 99  1  0
 99100  2  0
 99101  1  0
101102  1  0
102103  1  0
103104  1  0
104105  1  0
105106  1  0
106107  1  0
107108  1  0
 80  2  1  0
 16 11  1  0
 36 31  2  0
 56 51  1  0
 76 71  2  0
108 13  1  0
 94 33  1  0
  3109  1  0
  3110  1  0
  4111  1  0
  4112  1  0
  5113  1  0
  5114  1  0
  6115  1  0
  6116  1  0
  7117  1  0
  7118  1  0
  8119  1  0
  8120  1  0
  9121  1  0
 10122  1  0
 10123  1  0
 12124  1  0
 14125  1  0
 16126  1  0
 17127  1  0
 17128  1  0
 18129  1  0
 19130  1  0
 19131  1  0
 20132  1  0
 20133  1  0
 21134  1  0
 21135  1  0
 22136  1  0
 22137  1  0
 23138  1  0
 23139  1  0
 24140  1  0
 24141  1  0
 28142  1  0
 28143  1  0
 29144  1  0
 30145  1  0
 30146  1  0
 32147  1  0
 34148  1  0
 36149  1  0
 37150  1  0
 37151  1  0
 38152  1  0
 39153  1  0
 39154  1  0
 43155  1  0
 43156  1  0
 44157  1  0
 44158  1  0
 45159  1  0
 45160  1  0
 46161  1  0
 46162  1  0
 47163  1  0
 47164  1  0
 48165  1  0
 48166  1  0
 49167  1  0
 50168  1  0
 50169  1  0
 52170  1  0
 54171  1  0
 56172  1  0
 57173  1  0
 57174  1  0
 58175  1  0
 59176  1  0
 59177  1  0
 63178  1  0
 63179  1  0
 64180  1  0
 64181  1  0
 65182  1  0
 65183  1  0
 66184  1  0
 66185  1  0
 67186  1  0
 67187  1  0
 68188  1  0
 68189  1  0
 69190  1  0
 70191  1  0
 70192  1  0
 72193  1  0
 74194  1  0
 76195  1  0
 77196  1  0
 77197  1  0
 78198  1  0
 79199  1  0
 79200  1  0
 81201  1  0
 81202  1  0
 82203  1  0
 83204  1  0
 83205  1  0
 84206  1  0
 84207  1  0
 85208  1  0
 85209  1  0
 86210  1  0
 86211  1  0
 87212  1  0
 87213  1  0
 88214  1  0
 88215  1  0
 92216  1  0
 92217  1  0
 93218  1  0
 94219  1  0
 94220  1  0
 95221  1  0
 95222  1  0
 96223  1  0
 97224  1  0
 97225  1  0
101226  1  0
101227  1  0
102228  1  0
102229  1  0
103230  1  0
103231  1  0
104232  1  0
104233  1  0
105234  1  0
105235  1  0
106236  1  0
106237  1  0
107238  1  0
108239  1  0
108240  1  0
M  END
