
     RDKit          3D

186204  0  0  0  0  0  0  0  0999 V2000
    4.7586    2.1387   -7.4845 C   0  0  0  0  0  0  0  0  0  0  0  0
    4.9695    1.3993   -6.3272 C   0  0  0  0  0  0  0  0  0  0  0  0
    3.9570    0.6493   -5.7403 C   0  0  0  0  0  0  0  0  0  0  0  0
    5.0205    0.8748   -4.8551 O   0  0  0  0  0  0  0  0  0  0  0  0
    6.0944    0.7589   -3.9854 N   0  0  0  0  0  0  0  0  0  0  0  0
    5.6849    1.5130   -2.8031 C   0  0  0  0  0  0  0  0  0  0  0  0
    6.6379    1.3217   -1.6300 C   0  0  0  0  0  0  0  0  0  0  0  0
    6.4851    0.5719   -0.4053 C   0  0  0  0  0  0  0  0  0  0  0  0
    5.8364    1.2627    0.6629 C   0  0  0  0  0  0  0  0  0  0  0  0
    5.7182    2.6013    0.1512 C   0  0  0  0  0  0  0  0  0  0  0  0
    7.0570    3.0994   -0.0273 C   0  0  0  0  0  0  0  0  0  0  0  0
    7.5866    2.2248   -1.0242 C   0  0  0  0  0  0  0  0  0  0  0  0
    7.8133    3.9723    0.8873 C   0  0  0  0  0  0  0  0  0  0  0  0
    7.9857    5.3537    0.4112 N   0  0  0  0  0  0  0  0  0  0  0  0
    6.7229    5.9149    0.2744 O   0  0  0  0  0  0  0  0  0  0  0  0
    5.3510    6.2188    0.2052 C   0  0  0  0  0  0  0  0  0  0  0  0
    5.9594    7.0951    1.0954 C   0  0  0  0  0  0  0  0  0  0  0  0
    5.2177    7.6859    2.1115 C   0  0  0  0  0  0  0  0  0  0  0  0
    3.9399    7.2003    2.3625 C   0  0  0  0  0  0  0  0  0  0  0  0
    3.3245    6.4437    1.3704 C   0  0  0  0  0  0  0  0  0  0  0  0
    2.2497    5.5508    1.4474 C   0  0  0  0  0  0  0  0  0  0  0  0
    2.2499    4.9704    0.1829 C   0  0  0  0  0  0  0  0  0  0  0  0
    2.0025    3.7589    0.9110 N   0  0  0  0  0  0  0  0  0  0  0  0
    1.8524    2.4255    1.5084 C   0  0  0  0  0  0  0  0  0  0  0  0
    0.6594    1.6833    1.0433 C   0  0  0  0  0  0  0  0  0  0  0  0
   -0.6157    1.5790    1.6840 C   0  0  0  0  0  0  0  0  0  0  0  0
   -1.5031    0.5533    1.2216 C   0  0  0  0  0  0  0  0  0  0  0  0
   -0.6363   -0.5092    1.6579 C   0  0  0  0  0  0  0  0  0  0  0  0
    0.5644   -0.6310    0.8984 C   0  0  0  0  0  0  0  0  0  0  0  0
    0.6128    0.5800    0.1206 C   0  0  0  0  0  0  0  0  0  0  0  0
    1.7161   -1.4876    1.2458 C   0  0  0  0  0  0  0  0  0  0  0  0
    1.5609   -2.9169    0.9401 N   0  0  0  0  0  0  0  0  0  0  0  0
    0.8784   -4.1732    1.0412 C   0  0  0  0  0  0  0  0  0  0  0  0
    2.0904   -4.5465    1.6196 C   0  0  0  0  0  0  0  0  0  0  0  0
    1.6651   -5.4815    2.5718 C   0  0  0  0  0  0  0  0  0  0  0  0
    2.3785   -6.1051    3.5914 C   0  0  0  0  0  0  0  0  0  0  0  0
    1.6037   -6.7569    4.5440 C   0  0  0  0  0  0  0  0  0  0  0  0
    0.3310   -6.2468    4.7825 C   0  0  0  0  0  0  0  0  0  0  0  0
   -0.3017   -5.4204    3.8573 C   0  0  0  0  0  0  0  0  0  0  0  0
   -0.8931   -5.2521    5.1160 O   0  0  0  0  0  0  0  0  0  0  0  0
   -1.3436   -4.8048    6.3103 N   0  0  0  0  0  0  0  0  0  0  0  0
   -2.7344   -4.5659    6.4334 C   0  0  0  0  0  0  0  0  0  0  0  0
   -3.2051   -3.2135    6.8880 C   0  0  0  0  0  0  0  0  0  0  0  0
   -2.4729   -2.1264    7.4398 C   0  0  0  0  0  0  0  0  0  0  0  0
   -1.9019   -1.2362    6.4805 C   0  0  0  0  0  0  0  0  0  0  0  0
   -3.1316   -0.6851    6.0164 C   0  0  0  0  0  0  0  0  0  0  0  0
   -4.0043   -1.5661    5.3088 C   0  0  0  0  0  0  0  0  0  0  0  0
   -4.2946   -2.4402    6.3971 C   0  0  0  0  0  0  0  0  0  0  0  0
   -4.0840   -1.8299    3.8555 C   0  0  0  0  0  0  0  0  0  0  0  0
   -5.2546   -1.2112    3.2204 N   0  0  0  0  0  0  0  0  0  0  0  0
   -6.5026   -0.7459    2.6939 C   0  0  0  0  0  0  0  0  0  0  0  0
   -6.1744    0.4261    3.3701 C   0  0  0  0  0  0  0  0  0  0  0  0
   -6.5570    1.4059    2.4484 C   0  0  0  0  0  0  0  0  0  0  0  0
   -6.3362    2.7788    2.4462 C   0  0  0  0  0  0  0  0  0  0  0  0
   -6.5637    3.4850    1.2741 C   0  0  0  0  0  0  0  0  0  0  0  0
   -6.5007    2.7363    0.1047 C   0  0  0  0  0  0  0  0  0  0  0  0
   -6.5962    1.3500    0.1122 C   0  0  0  0  0  0  0  0  0  0  0  0
   -6.0319    1.7560   -1.1083 O   0  0  0  0  0  0  0  0  0  0  0  0
   -5.6500    2.1801   -2.3676 N   0  0  0  0  0  0  0  0  0  0  0  0
   -5.5880    0.9913   -3.2273 C   0  0  0  0  0  0  0  0  0  0  0  0
   -4.5512    1.0278   -4.2739 C   0  0  0  0  0  0  0  0  0  0  0  0
   -4.7630    1.1054   -5.6960 C   0  0  0  0  0  0  0  0  0  0  0  0
   -4.6539   -0.2243   -6.2299 C   0  0  0  0  0  0  0  0  0  0  0  0
   -3.3013   -0.5734   -5.9382 C   0  0  0  0  0  0  0  0  0  0  0  0
   -2.4847    0.4801   -5.4019 C   0  0  0  0  0  0  0  0  0  0  0  0
   -3.2157    0.5370   -4.1588 C   0  0  0  0  0  0  0  0  0  0  0  0
   -1.6415    1.5134   -6.1367 C   0  0  0  0  0  0  0  0  0  0  0  0
   -0.2247    1.1494   -6.1618 N   0  0  0  0  0  0  0  0  0  0  0  0
    0.8193    0.2700   -6.6058 C   0  0  0  0  0  0  0  0  0  0  0  0
    1.1150    1.3324   -7.4596 C   0  0  0  0  0  0  0  0  0  0  0  0
    2.5116    1.3406   -7.4302 C   0  0  0  0  0  0  0  0  0  0  0  0
    3.4389    2.2623   -7.9014 C   0  0  0  0  0  0  0  0  0  0  0  0
    2.8905    0.2914   -6.5808 C   0  0  0  0  0  0  0  0  0  0  0  0
    1.8619   -0.5823   -6.7676 N   0  0  0  0  0  0  0  0  0  0  0  0
   -5.7729   -1.1803   -6.5007 C   0  0  0  0  0  0  0  0  0  0  0  0
   -6.3577   -1.9142   -5.4320 N   0  0  0  0  0  0  0  0  0  0  0  0
   -5.5411   -2.5298   -4.5754 O   0  0  0  0  0  0  0  0  0  0  0  0
   -4.8973   -2.8789   -3.3810 C   0  0  0  0  0  0  0  0  0  0  0  0
   -4.4799   -3.7496   -4.3820 C   0  0  0  0  0  0  0  0  0  0  0  0
   -3.1288   -4.0905   -4.3398 C   0  0  0  0  0  0  0  0  0  0  0  0
   -2.2621   -3.5629   -3.3881 C   0  0  0  0  0  0  0  0  0  0  0  0
   -2.8667   -3.0483   -2.2438 C   0  0  0  0  0  0  0  0  0  0  0  0
   -2.3775   -2.2371   -1.2118 C   0  0  0  0  0  0  0  0  0  0  0  0
   -3.5406   -1.9560   -0.5015 C   0  0  0  0  0  0  0  0  0  0  0  0
   -2.9792   -0.6329   -0.4207 N   0  0  0  0  0  0  0  0  0  0  0  0
   -2.5481    0.6252    0.1121 C   0  0  0  0  0  0  0  0  0  0  0  0
   -4.3972   -2.9746   -0.7793 N   0  0  0  0  0  0  0  0  0  0  0  0
   -4.2692   -3.0623   -2.1347 C   0  0  0  0  0  0  0  0  0  0  0  0
   -7.0254    0.7428    1.3037 C   0  0  0  0  0  0  0  0  0  0  0  0
   -7.5128   -0.4051    1.8541 N   0  0  0  0  0  0  0  0  0  0  0  0
   -0.5891   -1.2874    5.7867 C   0  0  0  0  0  0  0  0  0  0  0  0
    0.3056   -0.1898    6.1616 N   0  0  0  0  0  0  0  0  0  0  0  0
    0.9977    1.0178    6.4042 C   0  0  0  0  0  0  0  0  0  0  0  0
    1.7318    0.2516    7.3067 C   0  0  0  0  0  0  0  0  0  0  0  0
    3.0233    0.7432    7.0961 C   0  0  0  0  0  0  0  0  0  0  0  0
    4.2538    0.2969    7.5651 C   0  0  0  0  0  0  0  0  0  0  0  0
    5.4040    0.7435    6.9251 C   0  0  0  0  0  0  0  0  0  0  0  0
    5.2404    1.3995    5.7110 C   0  0  0  0  0  0  0  0  0  0  0  0
    3.9830    1.6317    5.1652 C   0  0  0  0  0  0  0  0  0  0  0  0
    4.9730    1.5913    4.1774 O   0  0  0  0  0  0  0  0  0  0  0  0
    5.7498    1.8662    3.1047 N   0  0  0  0  0  0  0  0  0  0  0  0
    5.6809    0.8405    2.0618 C   0  0  0  0  0  0  0  0  0  0  0  0
    2.9373    1.7278    6.0993 C   0  0  0  0  0  0  0  0  0  0  0  0
    1.6726    2.1906    6.3100 N   0  0  0  0  0  0  0  0  0  0  0  0
    0.2579   -5.5005    2.5685 C   0  0  0  0  0  0  0  0  0  0  0  0
    0.0208   -5.2049    1.2570 N   0  0  0  0  0  0  0  0  0  0  0  0
    2.8599    5.8840   -0.6192 N   0  0  0  0  0  0  0  0  0  0  0  0
    3.9453    6.2410    0.1265 C   0  0  0  0  0  0  0  0  0  0  0  0
    5.5390    2.7119   -7.9464 H   0  0  0  0  0  0  0  0  0  0  0  0
    5.9887    1.2996   -5.9498 H   0  0  0  0  0  0  0  0  0  0  0  0
    6.3017   -0.2409   -3.7542 H   0  0  0  0  0  0  0  0  0  0  0  0
    4.6340    1.2505   -2.6417 H   0  0  0  0  0  0  0  0  0  0  0  0
    5.5391    2.5338   -3.1672 H   0  0  0  0  0  0  0  0  0  0  0  0
    6.6362   -0.5268   -0.4743 H   0  0  0  0  0  0  0  0  0  0  0  0
    4.7900    3.1370   -0.0905 H   0  0  0  0  0  0  0  0  0  0  0  0
    8.5566    2.3573   -1.5492 H   0  0  0  0  0  0  0  0  0  0  0  0
    8.7322    3.6017    1.4091 H   0  0  0  0  0  0  0  0  0  0  0  0
    7.3320    4.2461    1.8681 H   0  0  0  0  0  0  0  0  0  0  0  0
    8.3646    5.2506   -0.5663 H   0  0  0  0  0  0  0  0  0  0  0  0
    7.0447    7.2036    1.0693 H   0  0  0  0  0  0  0  0  0  0  0  0
    5.6708    8.3726    2.7974 H   0  0  0  0  0  0  0  0  0  0  0  0
    3.5106    7.2332    3.3643 H   0  0  0  0  0  0  0  0  0  0  0  0
    1.7704    5.1173    2.3010 H   0  0  0  0  0  0  0  0  0  0  0  0
    1.7607    4.2664    1.8023 H   0  0  0  0  0  0  0  0  0  0  0  0
    2.1175    2.4690    2.5957 H   0  0  0  0  0  0  0  0  0  0  0  0
    2.8591    1.9845    1.2609 H   0  0  0  0  0  0  0  0  0  0  0  0
   -1.0390    2.3689    2.3458 H   0  0  0  0  0  0  0  0  0  0  0  0
   -1.0739   -1.2596    2.3475 H   0  0  0  0  0  0  0  0  0  0  0  0
    0.5940    0.6513   -0.9749 H   0  0  0  0  0  0  0  0  0  0  0  0
    2.6470   -1.3891    0.6254 H   0  0  0  0  0  0  0  0  0  0  0  0
    2.2540   -1.3222    2.2145 H   0  0  0  0  0  0  0  0  0  0  0  0
    2.3682   -3.1509    1.5380 H   0  0  0  0  0  0  0  0  0  0  0  0
    2.9447   -3.8686    1.6637 H   0  0  0  0  0  0  0  0  0  0  0  0
    3.4326   -5.9290    3.7008 H   0  0  0  0  0  0  0  0  0  0  0  0
    2.0984   -7.3886    5.2557 H   0  0  0  0  0  0  0  0  0  0  0  0
   -0.2331   -6.5398    5.6685 H   0  0  0  0  0  0  0  0  0  0  0  0
   -0.8888   -5.2685    7.1225 H   0  0  0  0  0  0  0  0  0  0  0  0
   -3.0560   -5.3712    7.1520 H   0  0  0  0  0  0  0  0  0  0  0  0
   -3.0946   -4.9527    5.4728 H   0  0  0  0  0  0  0  0  0  0  0  0
   -2.2318   -2.0560    8.5196 H   0  0  0  0  0  0  0  0  0  0  0  0
   -3.3671    0.3958    6.1212 H   0  0  0  0  0  0  0  0  0  0  0  0
   -5.3315   -2.5868    6.7682 H   0  0  0  0  0  0  0  0  0  0  0  0
   -3.2674   -1.5029    3.1908 H   0  0  0  0  0  0  0  0  0  0  0  0
   -4.1283   -2.8847    3.4915 H   0  0  0  0  0  0  0  0  0  0  0  0
   -5.2237   -0.4192    3.9146 H   0  0  0  0  0  0  0  0  0  0  0  0
   -5.4610    0.4838    4.1773 H   0  0  0  0  0  0  0  0  0  0  0  0
   -5.8740    3.2428    3.3196 H   0  0  0  0  0  0  0  0  0  0  0  0
   -6.4675    4.5577    1.2684 H   0  0  0  0  0  0  0  0  0  0  0  0
   -6.4845    3.2177   -0.8511 H   0  0  0  0  0  0  0  0  0  0  0  0
   -4.6781    2.5817   -2.3050 H   0  0  0  0  0  0  0  0  0  0  0  0
   -6.6655    1.0423   -3.5523 H   0  0  0  0  0  0  0  0  0  0  0  0
   -5.7785    0.0506   -2.6484 H   0  0  0  0  0  0  0  0  0  0  0  0
   -4.9312    2.0284   -6.2683 H   0  0  0  0  0  0  0  0  0  0  0  0
   -2.7894   -1.5044   -6.2637 H   0  0  0  0  0  0  0  0  0  0  0  0
   -2.6220    0.4661   -3.2240 H   0  0  0  0  0  0  0  0  0  0  0  0
   -1.6251    2.5250   -5.7146 H   0  0  0  0  0  0  0  0  0  0  0  0
   -2.0026    1.8091   -7.1549 H   0  0  0  0  0  0  0  0  0  0  0  0
   -0.0499    1.9024   -6.8777 H   0  0  0  0  0  0  0  0  0  0  0  0
    0.4378    2.1535   -7.7026 H   0  0  0  0  0  0  0  0  0  0  0  0
    3.1070    3.1104   -8.4715 H   0  0  0  0  0  0  0  0  0  0  0  0
    1.8479   -1.6272   -6.9043 H   0  0  0  0  0  0  0  0  0  0  0  0
   -6.7154   -0.6839   -6.8833 H   0  0  0  0  0  0  0  0  0  0  0  0
   -5.7082   -1.7568   -7.4671 H   0  0  0  0  0  0  0  0  0  0  0  0
   -7.1890   -1.4922   -4.9795 H   0  0  0  0  0  0  0  0  0  0  0  0
   -4.9759   -3.6023   -5.3433 H   0  0  0  0  0  0  0  0  0  0  0  0
   -2.7029   -4.6745   -5.1384 H   0  0  0  0  0  0  0  0  0  0  0  0
   -1.2150   -3.4052   -3.5470 H   0  0  0  0  0  0  0  0  0  0  0  0
   -1.4876   -1.6044   -1.2326 H   0  0  0  0  0  0  0  0  0  0  0  0
   -2.0204   -0.9997   -0.6580 H   0  0  0  0  0  0  0  0  0  0  0  0
   -2.2374    1.1151   -0.8188 H   0  0  0  0  0  0  0  0  0  0  0  0
   -3.5127    1.0690    0.4696 H   0  0  0  0  0  0  0  0  0  0  0  0
   -5.0339   -3.4756   -0.1052 H   0  0  0  0  0  0  0  0  0  0  0  0
   -8.4106   -0.9320    1.6866 H   0  0  0  0  0  0  0  0  0  0  0  0
   -0.5659   -1.2843    4.6729 H   0  0  0  0  0  0  0  0  0  0  0  0
    0.0663   -2.1575    5.9322 H   0  0  0  0  0  0  0  0  0  0  0  0
    0.7339   -0.6954    6.9670 H   0  0  0  0  0  0  0  0  0  0  0  0
    1.4315   -0.7357    7.6628 H   0  0  0  0  0  0  0  0  0  0  0  0
    4.3014   -0.5181    8.2600 H   0  0  0  0  0  0  0  0  0  0  0  0
    6.2972    0.8408    7.5303 H   0  0  0  0  0  0  0  0  0  0  0  0
    6.1380    1.6776    5.1982 H   0  0  0  0  0  0  0  0  0  0  0  0
    6.6946    2.1999    3.3081 H   0  0  0  0  0  0  0  0  0  0  0  0
    6.4036    0.2009    2.5806 H   0  0  0  0  0  0  0  0  0  0  0  0
    4.6867    0.3680    2.3027 H   0  0  0  0  0  0  0  0  0  0  0  0
    1.2781    3.1674    6.3258 H   0  0  0  0  0  0  0  0  0  0  0  0
   -0.6443   -5.6345    0.5606 H   0  0  0  0  0  0  0  0  0  0  0  0
    2.5714    6.1506   -1.5976 H   0  0  0  0  0  0  0  0  0  0  0  0
  1  2  2  0
  2  3  1  0
  3  4  1  0
  4  5  1  0
  5  6  1  0
  6  7  1  0
  7  8  1  0
  8  9  2  0
  9 10  1  0
 10 11  2  0
 11 12  1  0
 11 13  1  0
 13 14  1  0
 14 15  1  0
 15 16  1  0
 16 17  2  0
 17 18  1  0
 18 19  2  0
 19 20  1  0
 20 21  1  0
 21 22  2  0
 22 23  1  0
 23 24  1  0
 24 25  1  0
 25 26  2  0
 26 27  1  0
 27 28  2  0
 28 29  1  0
 29 30  2  0
 29 31  1  0
 31 32  1  0
 32 33  1  0
 33 34  2  0
 34 35  1  0
 35 36  2  0
 36 37  1  0
 37 38  2  0
 38 39  1  0
 39 40  1  0
 40 41  1  0
 41 42  1  0
 42 43  1  0
 43 44  2  0
 44 45  1  0
 45 46  2  0
 46 47  1  0
 47 48  2  0
 47 49  1  0
 49 50  1  0
 50 51  1  0
 51 52  2  0
 52 53  1  0
 53 54  2  0
 54 55  1  0
 55 56  2  0
 56 57  1  0
 57 58  1  0
 58 59  1  0
 59 60  1  0
 60 61  1  0
 61 62  1  0
 62 63  2  0
 63 64  1  0
 64 65  2  0
 65 66  1  0
 65 67  1  0
 67 68  1  0
 68 69  1  0
 69 70  2  0
 70 71  1  0
 71 72  2  0
 71 73  1  0
 73 74  1  0
 63 75  1  0
 75 76  1  0
 76 77  1  0
 77 78  1  0
 78 79  1  0
 79 80  2  0
 80 81  1  0
 81 82  2  0
 82 83  1  0
 83 84  2  0
 84 85  1  0
 85 86  1  0
 84 87  1  0
 87 88  1  0
 57 89  2  0
 89 90  1  0
 45 91  1  0
 91 92  1  0
 92 93  1  0
 93 94  2  0
 94 95  1  0
 95 96  2  0
 96 97  1  0
 97 98  2  0
 98 99  1  0
 99100  1  0
100101  1  0
101102  1  0
 99103  2  0
103104  1  0
 39105  2  0
105106  1  0
 22107  1  0
107108  1  0
 72  1  1  0
 88 78  2  0
104 93  1  0
 73  3  2  0
 88 82  1  0
103 95  1  0
 12  7  2  0
108 16  1  0
102  9  1  0
108 20  2  0
 30 25  1  0
106 33  1  0
 86 27  1  0
105 35  1  0
 48 43  1  0
 90 51  1  0
 89 53  1  0
 66 61  2  0
 74 69  1  0
  1109  1  0
  2110  1  0
  5111  1  0
  6112  1  0
  6113  1  0
  8114  1  0
 10115  1  0
 12116  1  0
 13117  1  0
 13118  1  0
 14119  1  0
 17120  1  0
 18121  1  0
 19122  1  0
 21123  1  0
 23124  1  0
 24125  1  0
 24126  1  0
 26127  1  0
 28128  1  0
 30129  1  0
 31130  1  0
 31131  1  0
 32132  1  0
 34133  1  0
 36134  1  0
 37135  1  0
 38136  1  0
 41137  1  0
 42138  1  0
 42139  1  0
 44140  1  0
 46141  1  0
 48142  1  0
 49143  1  0
 49144  1  0
 50145  1  0
 52146  1  0
 54147  1  0
 55148  1  0
 56149  1  0
 59150  1  0
 60151  1  0
 60152  1  0
 62153  1  0
 64154  1  0
 66155  1  0
 67156  1  0
 67157  1  0
 68158  1  0
 70159  1  0
 72160  1  0
 74161  1  0
 75162  1  0
 75163  1  0
 76164  1  0
 79165  1  0
 80166  1  0
 81167  1  0
 83168  1  0
 85169  1  0
 86170  1  0
 86171  1  0
 87172  1  0
 90173  1  0
 91174  1  0
 91175  1  0
 92176  1  0
 94177  1  0
 96178  1  0
 97179  1  0
 98180  1  0
101181  1  0
102182  1  0
102183  1  0
104184  1  0
106185  1  0
107186  1  0
M  END
