
     RDKit          3D

216234  0  0  0  0  0  0  0  0999 V2000
    5.5700   -3.6322    5.2302 O   0  0  0  0  0  0  0  0  0  0  0  0
    5.5634   -2.8796    4.2353 C   0  0  0  0  0  0  0  0  0  0  0  0
    6.5184   -3.6337    3.5453 O   0  0  0  0  0  0  0  0  0  0  0  0
    7.5714   -4.0060    2.6763 C   0  0  0  0  0  0  0  0  0  0  0  0
    7.3192   -3.6859    1.2994 N   0  0  0  0  0  0  0  0  0  0  0  0
    6.9357   -2.2874    1.1943 C   0  0  0  0  0  0  0  0  0  0  0  0
    5.6924   -2.0825    0.3295 C   0  0  0  0  0  0  0  0  0  0  0  0
    4.3197   -1.8707    0.7080 C   0  0  0  0  0  0  0  0  0  0  0  0
    3.9042   -0.5155    0.8821 C   0  0  0  0  0  0  0  0  0  0  0  0
    5.0676    0.2143    0.4518 C   0  0  0  0  0  0  0  0  0  0  0  0
    5.2553   -0.0648   -0.9472 C   0  0  0  0  0  0  0  0  0  0  0  0
    5.5057   -1.4710   -0.9649 C   0  0  0  0  0  0  0  0  0  0  0  0
    4.9013    0.7960   -2.0940 C   0  0  0  0  0  0  0  0  0  0  0  0
    6.0525    1.4444   -2.7383 N   0  0  0  0  0  0  0  0  0  0  0  0
    5.6649    1.7114   -4.0908 C   0  0  0  0  0  0  0  0  0  0  0  0
    5.7587    3.1226   -4.2745 O   0  0  0  0  0  0  0  0  0  0  0  0
    5.7592    4.5192   -4.3695 C   0  0  0  0  0  0  0  0  0  0  0  0
    6.4728    4.5210   -5.4166 O   0  0  0  0  0  0  0  0  0  0  0  0
    5.7636    5.9569   -4.2405 C   0  0  0  0  0  0  0  0  0  0  0  0
    6.3061    5.5900   -5.4735 C   0  0  0  0  0  0  0  0  0  0  0  0
    5.8057    6.3394   -6.5453 C   0  0  0  0  0  0  0  0  0  0  0  0
    4.7239    7.2011   -6.3151 C   0  0  0  0  0  0  0  0  0  0  0  0
    3.4699    7.2279   -6.8698 N   0  0  0  0  0  0  0  0  0  0  0  0
    2.7112    7.6907   -5.8424 C   0  0  0  0  0  0  0  0  0  0  0  0
    3.5336    8.6538   -5.2667 C   0  0  0  0  0  0  0  0  0  0  0  0
    4.6966    7.8939   -5.0859 C   0  0  0  0  0  0  0  0  0  0  0  0
    5.4391    7.2847   -4.0692 C   0  0  0  0  0  0  0  0  0  0  0  0
    1.7653    6.7649   -6.3903 N   0  0  0  0  0  0  0  0  0  0  0  0
    0.9379    5.5512   -6.4564 C   0  0  0  0  0  0  0  0  0  0  0  0
    1.6261    4.4104   -7.1443 C   0  0  0  0  0  0  0  0  0  0  0  0
    1.2257    3.6170   -8.2609 C   0  0  0  0  0  0  0  0  0  0  0  0
    0.4317    2.4774   -7.9573 C   0  0  0  0  0  0  0  0  0  0  0  0
    1.4538    1.7244   -7.3125 C   0  0  0  0  0  0  0  0  0  0  0  0
    1.9489    2.2451   -6.0814 C   0  0  0  0  0  0  0  0  0  0  0  0
    2.5179    3.4506   -6.5893 C   0  0  0  0  0  0  0  0  0  0  0  0
    1.5634    1.8860   -4.7048 C   0  0  0  0  0  0  0  0  0  0  0  0
    1.3289    2.9735   -3.7588 N   0  0  0  0  0  0  0  0  0  0  0  0
    1.4444    4.0795   -2.8438 C   0  0  0  0  0  0  0  0  0  0  0  0
    1.8078    5.1343   -2.0306 C   0  0  0  0  0  0  0  0  0  0  0  0
    0.4721    5.3554   -1.6776 C   0  0  0  0  0  0  0  0  0  0  0  0
   -0.6066    6.2413   -1.6518 C   0  0  0  0  0  0  0  0  0  0  0  0
   -1.1220    6.0741   -0.4147 C   0  0  0  0  0  0  0  0  0  0  0  0
   -1.6046    4.8721    0.0908 C   0  0  0  0  0  0  0  0  0  0  0  0
   -0.9771    3.7713   -0.4815 C   0  0  0  0  0  0  0  0  0  0  0  0
    0.1116    4.0416   -1.3014 C   0  0  0  0  0  0  0  0  0  0  0  0
    0.8254    3.1638   -2.0572 N   0  0  0  0  0  0  0  0  0  0  0  0
   -1.6514    6.1532    0.9558 C   0  0  0  0  0  0  0  0  0  0  0  0
   -2.1033    4.9681    0.9126 O   0  0  0  0  0  0  0  0  0  0  0  0
   -2.2230    6.4101    2.2081 O   0  0  0  0  0  0  0  0  0  0  0  0
   -2.9390    6.6157    3.4272 C   0  0  0  0  0  0  0  0  0  0  0  0
   -4.3128    6.3883    3.1636 N   0  0  0  0  0  0  0  0  0  0  0  0
   -5.1029    5.8868    4.2487 C   0  0  0  0  0  0  0  0  0  0  0  0
   -5.0441    4.4257    4.5798 C   0  0  0  0  0  0  0  0  0  0  0  0
   -5.8677    3.3670    4.0579 C   0  0  0  0  0  0  0  0  0  0  0  0
   -5.1680    2.7569    2.9577 C   0  0  0  0  0  0  0  0  0  0  0  0
   -4.0066    2.2126    3.5901 C   0  0  0  0  0  0  0  0  0  0  0  0
   -3.9819    2.2819    5.0302 C   0  0  0  0  0  0  0  0  0  0  0  0
   -3.8938    3.7204    5.0470 C   0  0  0  0  0  0  0  0  0  0  0  0
   -4.4812    1.3032    6.0886 C   0  0  0  0  0  0  0  0  0  0  0  0
   -3.4113    0.5912    6.7510 N   0  0  0  0  0  0  0  0  0  0  0  0
   -2.3027    0.0689    7.4305 C   0  0  0  0  0  0  0  0  0  0  0  0
   -1.1277   -0.3136    8.0681 C   0  0  0  0  0  0  0  0  0  0  0  0
   -1.4198   -1.6679    8.2677 C   0  0  0  0  0  0  0  0  0  0  0  0
   -1.0507   -2.9390    7.8197 C   0  0  0  0  0  0  0  0  0  0  0  0
   -2.0697   -3.7822    7.4451 C   0  0  0  0  0  0  0  0  0  0  0  0
   -3.1360   -3.9233    8.3354 C   0  0  0  0  0  0  0  0  0  0  0  0
   -3.4203   -2.7560    9.0527 C   0  0  0  0  0  0  0  0  0  0  0  0
   -2.7639   -1.5733    8.6852 C   0  0  0  0  0  0  0  0  0  0  0  0
   -3.2588   -0.3540    8.3023 N   0  0  0  0  0  0  0  0  0  0  0  0
   -3.1737   -4.4410    6.7885 C   0  0  0  0  0  0  0  0  0  0  0  0
   -3.8234   -4.5440    7.8729 O   0  0  0  0  0  0  0  0  0  0  0  0
   -3.9652   -5.3418    6.0683 O   0  0  0  0  0  0  0  0  0  0  0  0
   -4.6880   -6.3849    5.4596 C   0  0  0  0  0  0  0  0  0  0  0  0
   -4.0126   -7.0976    4.4550 N   0  0  0  0  0  0  0  0  0  0  0  0
   -2.6485   -7.4096    4.6367 C   0  0  0  0  0  0  0  0  0  0  0  0
   -1.7242   -7.3150    3.4236 C   0  0  0  0  0  0  0  0  0  0  0  0
   -2.0174   -7.4421    2.0210 C   0  0  0  0  0  0  0  0  0  0  0  0
   -2.3673   -6.2411    1.3323 C   0  0  0  0  0  0  0  0  0  0  0  0
   -2.1214   -5.2337    2.3314 C   0  0  0  0  0  0  0  0  0  0  0  0
   -0.7166   -5.2465    2.6380 C   0  0  0  0  0  0  0  0  0  0  0  0
   -0.5246   -6.5503    3.1910 C   0  0  0  0  0  0  0  0  0  0  0  0
    0.3156   -4.2947    2.1618 C   0  0  0  0  0  0  0  0  0  0  0  0
    0.7027   -3.2877    3.1591 N   0  0  0  0  0  0  0  0  0  0  0  0
    0.9682   -2.2616    4.0865 C   0  0  0  0  0  0  0  0  0  0  0  0
    1.1531   -1.1619    4.9166 C   0  0  0  0  0  0  0  0  0  0  0  0
    2.4660   -1.4189    5.3278 C   0  0  0  0  0  0  0  0  0  0  0  0
    3.7740   -0.9480    5.1797 C   0  0  0  0  0  0  0  0  0  0  0  0
    4.7299   -1.8839    4.8673 C   0  0  0  0  0  0  0  0  0  0  0  0
    4.7708   -3.0377    5.6530 C   0  0  0  0  0  0  0  0  0  0  0  0
    3.5077   -3.4449    6.0992 C   0  0  0  0  0  0  0  0  0  0  0  0
    2.3781   -2.8070    5.5676 C   0  0  0  0  0  0  0  0  0  0  0  0
    1.2990   -3.3067    4.8874 N   0  0  0  0  0  0  0  0  0  0  0  0
   -2.4598   -6.0597   -0.1461 C   0  0  0  0  0  0  0  0  0  0  0  0
   -1.2581   -6.2623   -0.9398 N   0  0  0  0  0  0  0  0  0  0  0  0
   -1.7124   -6.4866   -2.2962 C   0  0  0  0  0  0  0  0  0  0  0  0
   -1.7828   -5.2773   -3.0481 O   0  0  0  0  0  0  0  0  0  0  0  0
   -1.5240   -3.9997   -3.5557 C   0  0  0  0  0  0  0  0  0  0  0  0
   -1.4797   -4.3620   -4.7617 O   0  0  0  0  0  0  0  0  0  0  0  0
   -1.1095   -2.6122   -3.8059 C   0  0  0  0  0  0  0  0  0  0  0  0
   -1.2620   -3.3453   -4.9771 C   0  0  0  0  0  0  0  0  0  0  0  0
   -1.6537   -2.5463   -6.0473 C   0  0  0  0  0  0  0  0  0  0  0  0
   -1.9130   -1.2088   -5.7678 C   0  0  0  0  0  0  0  0  0  0  0  0
   -2.1436   -0.1885   -6.6393 N   0  0  0  0  0  0  0  0  0  0  0  0
   -2.1011    0.8113   -5.7366 C   0  0  0  0  0  0  0  0  0  0  0  0
   -2.6782    0.3938   -4.5536 C   0  0  0  0  0  0  0  0  0  0  0  0
   -1.7797   -0.6740   -4.4656 C   0  0  0  0  0  0  0  0  0  0  0  0
   -0.7800   -1.3114   -3.7268 C   0  0  0  0  0  0  0  0  0  0  0  0
   -1.6408    1.5485   -6.8827 N   0  0  0  0  0  0  0  0  0  0  0  0
   -1.0437    2.3390   -7.9239 C   0  0  0  0  0  0  0  0  0  0  0  0
   -5.3833    2.9911    1.5094 C   0  0  0  0  0  0  0  0  0  0  0  0
   -6.0214    1.8620    0.8186 N   0  0  0  0  0  0  0  0  0  0  0  0
   -6.3011    0.8046   -0.0519 C   0  0  0  0  0  0  0  0  0  0  0  0
   -6.6760   -0.1462   -0.9955 C   0  0  0  0  0  0  0  0  0  0  0  0
   -5.6274   -1.0633   -0.8399 C   0  0  0  0  0  0  0  0  0  0  0  0
   -4.4800   -1.5132   -1.4998 C   0  0  0  0  0  0  0  0  0  0  0  0
   -3.2948   -1.4892   -0.7873 C   0  0  0  0  0  0  0  0  0  0  0  0
   -3.3212   -2.0513    0.4893 C   0  0  0  0  0  0  0  0  0  0  0  0
   -4.5489   -1.9048    1.1439 C   0  0  0  0  0  0  0  0  0  0  0  0
   -5.5129   -1.0667    0.5664 C   0  0  0  0  0  0  0  0  0  0  0  0
   -6.1329    0.0500    1.0633 N   0  0  0  0  0  0  0  0  0  0  0  0
   -2.0963   -1.1288   -0.0685 C   0  0  0  0  0  0  0  0  0  0  0  0
   -2.3345   -1.8839    0.9015 O   0  0  0  0  0  0  0  0  0  0  0  0
   -0.8425   -0.7586    0.4252 O   0  0  0  0  0  0  0  0  0  0  0  0
    0.2481    0.0156    0.8245 C   0  0  0  0  0  0  0  0  0  0  0  0
    1.4647   -0.4261    0.1586 N   0  0  0  0  0  0  0  0  0  0  0  0
    2.5258   -0.0111    1.0750 C   0  0  0  0  0  0  0  0  0  0  0  0
    8.5271   -3.4980    2.9622 H   0  0  0  0  0  0  0  0  0  0  0  0
    7.6817   -5.1035    2.7799 H   0  0  0  0  0  0  0  0  0  0  0  0
    6.4874   -4.2391    0.9642 H   0  0  0  0  0  0  0  0  0  0  0  0
    7.8508   -1.7965    0.8430 H   0  0  0  0  0  0  0  0  0  0  0  0
    6.9145   -1.8388    2.1971 H   0  0  0  0  0  0  0  0  0  0  0  0
    3.7559   -2.7563    1.0736 H   0  0  0  0  0  0  0  0  0  0  0  0
    5.6933    0.8648    1.0772 H   0  0  0  0  0  0  0  0  0  0  0  0
    5.8209   -2.0641   -1.8486 H   0  0  0  0  0  0  0  0  0  0  0  0
    4.3197    1.7346   -1.8800 H   0  0  0  0  0  0  0  0  0  0  0  0
    4.1447    0.4629   -2.8491 H   0  0  0  0  0  0  0  0  0  0  0  0
    6.8293    0.7342   -2.6804 H   0  0  0  0  0  0  0  0  0  0  0  0
    6.4203    1.2441   -4.7691 H   0  0  0  0  0  0  0  0  0  0  0  0
    4.6871    1.3084   -4.3822 H   0  0  0  0  0  0  0  0  0  0  0  0
    6.6180    4.5495   -5.5964 H   0  0  0  0  0  0  0  0  0  0  0  0
    5.9243    5.9711   -7.5663 H   0  0  0  0  0  0  0  0  0  0  0  0
    3.0971    6.6216   -7.6491 H   0  0  0  0  0  0  0  0  0  0  0  0
    3.3232    9.7204   -5.1365 H   0  0  0  0  0  0  0  0  0  0  0  0
    5.8918    7.7758   -3.2038 H   0  0  0  0  0  0  0  0  0  0  0  0
    2.4140    6.4772   -7.1482 H   0  0  0  0  0  0  0  0  0  0  0  0
    0.4565    5.3364   -5.4735 H   0  0  0  0  0  0  0  0  0  0  0  0
    0.0520    5.9783   -6.9475 H   0  0  0  0  0  0  0  0  0  0  0  0
    1.4122    3.9608   -9.3010 H   0  0  0  0  0  0  0  0  0  0  0  0
    1.8015    0.7506   -7.7202 H   0  0  0  0  0  0  0  0  0  0  0  0
    3.6036    3.6637   -6.4774 H   0  0  0  0  0  0  0  0  0  0  0  0
    2.3031    1.2255   -4.1746 H   0  0  0  0  0  0  0  0  0  0  0  0
    0.6247    1.3515   -4.5200 H   0  0  0  0  0  0  0  0  0  0  0  0
    1.1744    2.2980   -2.9935 H   0  0  0  0  0  0  0  0  0  0  0  0
    2.7327    5.6369   -1.8540 H   0  0  0  0  0  0  0  0  0  0  0  0
   -0.9641    6.9110   -2.3943 H   0  0  0  0  0  0  0  0  0  0  0  0
   -2.1217    4.7794    1.0226 H   0  0  0  0  0  0  0  0  0  0  0  0
   -1.3228    2.7777   -0.2865 H   0  0  0  0  0  0  0  0  0  0  0  0
    0.6216    2.1739   -2.3078 H   0  0  0  0  0  0  0  0  0  0  0  0
   -2.8054    7.6955    3.6738 H   0  0  0  0  0  0  0  0  0  0  0  0
   -2.4896    6.0163    4.2265 H   0  0  0  0  0  0  0  0  0  0  0  0
   -4.5484    5.9124    2.2861 H   0  0  0  0  0  0  0  0  0  0  0  0
   -5.1923    6.5885    5.1190 H   0  0  0  0  0  0  0  0  0  0  0  0
   -6.0795    6.2288    3.8034 H   0  0  0  0  0  0  0  0  0  0  0  0
   -6.8569    3.0754    4.4366 H   0  0  0  0  0  0  0  0  0  0  0  0
   -3.2672    1.5408    3.1047 H   0  0  0  0  0  0  0  0  0  0  0  0
   -3.0606    4.1666    5.6303 H   0  0  0  0  0  0  0  0  0  0  0  0
   -5.1778    0.5269    5.7502 H   0  0  0  0  0  0  0  0  0  0  0  0
   -5.1124    1.7205    6.8841 H   0  0  0  0  0  0  0  0  0  0  0  0
   -4.0715    0.2595    7.4825 H   0  0  0  0  0  0  0  0  0  0  0  0
   -0.3047    0.3243    8.4063 H   0  0  0  0  0  0  0  0  0  0  0  0
   -0.0440   -3.3668    7.8251 H   0  0  0  0  0  0  0  0  0  0  0  0
   -3.9180   -4.6405    8.0736 H   0  0  0  0  0  0  0  0  0  0  0  0
   -4.3802   -2.6518    9.5624 H   0  0  0  0  0  0  0  0  0  0  0  0
   -4.2706   -0.0543    8.2707 H   0  0  0  0  0  0  0  0  0  0  0  0
   -5.6011   -5.9129    5.0153 H   0  0  0  0  0  0  0  0  0  0  0  0
   -5.0896   -7.1224    6.2009 H   0  0  0  0  0  0  0  0  0  0  0  0
   -4.3779   -7.0631    3.4991 H   0  0  0  0  0  0  0  0  0  0  0  0
   -2.5923   -8.4141    5.1308 H   0  0  0  0  0  0  0  0  0  0  0  0
   -2.4203   -6.7262    5.4613 H   0  0  0  0  0  0  0  0  0  0  0  0
   -2.1724   -8.4696    1.6270 H   0  0  0  0  0  0  0  0  0  0  0  0
   -2.8822   -4.5784    2.7780 H   0  0  0  0  0  0  0  0  0  0  0  0
    0.4109   -6.9182    3.6635 H   0  0  0  0  0  0  0  0  0  0  0  0
    1.2133   -4.6629    1.6019 H   0  0  0  0  0  0  0  0  0  0  0  0
    0.0343   -3.6213    1.3039 H   0  0  0  0  0  0  0  0  0  0  0  0
    0.7288   -4.0282    3.9035 H   0  0  0  0  0  0  0  0  0  0  0  0
    0.4140   -0.4134    5.2189 H   0  0  0  0  0  0  0  0  0  0  0  0
    4.1315    0.0690    5.3571 H   0  0  0  0  0  0  0  0  0  0  0  0
    5.5680   -3.7572    5.4477 H   0  0  0  0  0  0  0  0  0  0  0  0
    3.3647   -4.4648    6.4621 H   0  0  0  0  0  0  0  0  0  0  0  0
    1.0914   -4.3161    4.6620 H   0  0  0  0  0  0  0  0  0  0  0  0
   -2.5982   -5.0020   -0.4993 H   0  0  0  0  0  0  0  0  0  0  0  0
   -3.3916   -6.4321   -0.6444 H   0  0  0  0  0  0  0  0  0  0  0  0
   -0.6653   -7.0386   -0.5928 H   0  0  0  0  0  0  0  0  0  0  0  0
   -1.0478   -7.2156   -2.8250 H   0  0  0  0  0  0  0  0  0  0  0  0
   -2.7206   -6.9250   -2.3210 H   0  0  0  0  0  0  0  0  0  0  0  0
   -1.5807   -4.3893   -4.9703 H   0  0  0  0  0  0  0  0  0  0  0  0
   -1.7267   -2.9471   -7.0370 H   0  0  0  0  0  0  0  0  0  0  0  0
   -1.9538   -0.1182   -7.6545 H   0  0  0  0  0  0  0  0  0  0  0  0
   -3.4549    0.7930   -3.9449 H   0  0  0  0  0  0  0  0  0  0  0  0
    0.0521   -0.9036   -3.2061 H   0  0  0  0  0  0  0  0  0  0  0  0
   -1.9251    0.7363   -7.4929 H   0  0  0  0  0  0  0  0  0  0  0  0
   -1.4766    1.9095   -8.8685 H   0  0  0  0  0  0  0  0  0  0  0  0
   -1.6591    3.2649   -7.8003 H   0  0  0  0  0  0  0  0  0  0  0  0
   -6.1148    3.7961    1.2244 H   0  0  0  0  0  0  0  0  0  0  0  0
   -4.5754    3.4559    0.8894 H   0  0  0  0  0  0  0  0  0  0  0  0
   -5.9992    1.2486    1.6693 H   0  0  0  0  0  0  0  0  0  0  0  0
   -7.6029   -0.1856   -1.5777 H   0  0  0  0  0  0  0  0  0  0  0  0
   -4.4347   -1.9875   -2.4837 H   0  0  0  0  0  0  0  0  0  0  0  0
   -2.3766   -2.0996    1.0371 H   0  0  0  0  0  0  0  0  0  0  0  0
   -4.6050   -2.0479    2.2246 H   0  0  0  0  0  0  0  0  0  0  0  0
   -6.0744    0.4486    2.0355 H   0  0  0  0  0  0  0  0  0  0  0  0
    0.1639    1.0902    0.6185 H   0  0  0  0  0  0  0  0  0  0  0  0
    0.3556   -0.0893    1.9185 H   0  0  0  0  0  0  0  0  0  0  0  0
    1.5774   -0.0498   -0.7906 H   0  0  0  0  0  0  0  0  0  0  0  0
    2.1638    0.0270    2.1378 H   0  0  0  0  0  0  0  0  0  0  0  0
    2.3522    1.0796    0.8655 H   0  0  0  0  0  0  0  0  0  0  0  0
  1  2  2  0
  2  3  1  0
  3  4  1  0
  4  5  1  0
  5  6  1  0
  6  7  1  0
  7  8  1  0
  8  9  2  0
  9 10  1  0
 10 11  2  0
 11 12  1  0
 11 13  1  0
 13 14  1  0
 14 15  1  0
 15 16  1  0
 16 17  1  0
 17 18  2  0
 17 19  1  0
 19 20  2  0
 20 21  1  0
 21 22  2  0
 22 23  1  0
 23 24  1  0
 24 25  2  0
 25 26  1  0
 26 27  2  0
 24 28  1  0
 28 29  1  0
 29 30  1  0
 30 31  1  0
 31 32  2  0
 32 33  1  0
 33 34  2  0
 34 35  1  0
 34 36  1  0
 36 37  1  0
 37 38  1  0
 38 39  2  0
 39 40  1  0
 40 41  1  0
 41 42  2  0
 42 43  1  0
 43 44  2  0
 44 45  1  0
 45 46  1  0
 42 47  1  0
 47 48  2  0
 47 49  1  0
 49 50  1  0
 50 51  1  0
 51 52  1  0
 52 53  1  0
 53 54  1  0
 54 55  2  0
 55 56  1  0
 56 57  2  0
 57 58  1  0
 57 59  1  0
 59 60  1  0
 60 61  1  0
 61 62  2  0
 62 63  1  0
 63 64  1  0
 64 65  2  0
 65 66  1  0
 66 67  2  0
 67 68  1  0
 68 69  1  0
 65 70  1  0
 70 71  2  0
 70 72  1  0
 72 73  1  0
 73 74  1  0
 74 75  1  0
 75 76  1  0
 76 77  1  0
 77 78  2  0
 78 79  1  0
 79 80  2  0
 80 81  1  0
 80 82  1  0
 82 83  1  0
 83 84  1  0
 84 85  2  0
 85 86  1  0
 86 87  2  0
 87 88  1  0
 88 89  2  0
 89 90  1  0
 90 91  2  0
 91 92  1  0
 78 93  1  0
 93 94  1  0
 94 95  1  0
 95 96  1  0
 96 97  1  0
 97 98  2  0
 97 99  1  0
 99100  2  0
100101  1  0
101102  2  0
102103  1  0
103104  1  0
104105  2  0
105106  1  0
106107  2  0
104108  1  0
108109  1  0
 55110  1  0
110111  1  0
111112  1  0
112113  2  0
113114  1  0
114115  2  0
115116  1  0
116117  2  0
117118  1  0
118119  2  0
119120  1  0
116121  1  0
121122  2  0
121123  1  0
123124  1  0
124125  1  0
125126  1  0
 88  2  1  0
107 99  1  0
120112  1  0
 12  7  2  0
 27 19  1  0
 35 30  2  0
 46 38  1  0
 58 53  2  0
 69 61  1  0
 81 76  2  0
 92 84  1  0
106102  1  0
119114  1  0
126  9  1  0
 26 22  1  0
109 32  1  0
 45 40  2  0
 68 63  2  0
 91 86  1  0
  4127  1  0
  4128  1  0
  5129  1  0
  6130  1  0
  6131  1  0
  8132  1  0
 10133  1  0
 12134  1  0
 13135  1  0
 13136  1  0
 14137  1  0
 15138  1  0
 15139  1  0
 20140  1  0
 21141  1  0
 23142  1  0
 25143  1  0
 27144  1  0
 28145  1  0
 29146  1  0
 29147  1  0
 31148  1  0
 33149  1  0
 35150  1  0
 36151  1  0
 36152  1  0
 37153  1  0
 39154  1  0
 41155  1  0
 43156  1  0
 44157  1  0
 46158  1  0
 50159  1  0
 50160  1  0
 51161  1  0
 52162  1  0
 52163  1  0
 54164  1  0
 56165  1  0
 58166  1  0
 59167  1  0
 59168  1  0
 60169  1  0
 62170  1  0
 64171  1  0
 66172  1  0
 67173  1  0
 69174  1  0
 73175  1  0
 73176  1  0
 74177  1  0
 75178  1  0
 75179  1  0
 77180  1  0
 79181  1  0
 81182  1  0
 82183  1  0
 82184  1  0
 83185  1  0
 85186  1  0
 87187  1  0
 89188  1  0
 90189  1  0
 92190  1  0
 93191  1  0
 93192  1  0
 94193  1  0
 95194  1  0
 95195  1  0
100196  1  0
101197  1  0
103198  1  0
105199  1  0
107200  1  0
108201  1  0
109202  1  0
109203  1  0
110204  1  0
110205  1  0
111206  1  0
113207  1  0
115208  1  0
117209  1  0
118210  1  0
120211  1  0
124212  1  0
124213  1  0
125214  1  0
126215  1  0
126216  1  0
M  END
