
     RDKit          3D

216234  0  0  0  0  0  0  0  0999 V2000
    8.3649   -1.0116    4.6579 C   0  0  0  0  0  0  0  0  0  0  0  0
    7.5290   -2.0223    4.2561 C   0  0  0  0  0  0  0  0  0  0  0  0
    6.3255   -1.6323    3.6800 C   0  0  0  0  0  0  0  0  0  0  0  0
    6.3435   -0.5160    2.8518 C   0  0  0  0  0  0  0  0  0  0  0  0
    7.3436    0.4137    3.1106 C   0  0  0  0  0  0  0  0  0  0  0  0
    8.4295    0.1527    3.9028 C   0  0  0  0  0  0  0  0  0  0  0  0
    5.0315    0.0367    2.5122 C   0  0  0  0  0  0  0  0  0  0  0  0
    4.1111    0.1316    3.5540 C   0  0  0  0  0  0  0  0  0  0  0  0
    2.8419    0.6974    3.1857 C   0  0  0  0  0  0  0  0  0  0  0  0
    2.4210   -0.1943    2.1505 C   0  0  0  0  0  0  0  0  0  0  0  0
    3.3247   -0.3401    1.1019 C   0  0  0  0  0  0  0  0  0  0  0  0
    4.5086    0.4490    1.2458 C   0  0  0  0  0  0  0  0  0  0  0  0
    4.9671    1.5172    0.3447 N   0  0  0  0  0  0  0  0  0  0  0  0
    5.4337    2.4324   -0.7123 C   0  0  0  0  0  0  0  0  0  0  0  0
    4.4834    2.7800   -1.7719 C   0  0  0  0  0  0  0  0  0  0  0  0
    3.2743    3.5243   -1.6364 C   0  0  0  0  0  0  0  0  0  0  0  0
    2.4606    3.5799   -2.8299 C   0  0  0  0  0  0  0  0  0  0  0  0
    2.1135    2.1854   -2.6842 C   0  0  0  0  0  0  0  0  0  0  0  0
    3.1705    1.2531   -2.9192 C   0  0  0  0  0  0  0  0  0  0  0  0
    4.3275    2.0953   -3.0308 C   0  0  0  0  0  0  0  0  0  0  0  0
    3.0401   -0.1931   -2.7755 C   0  0  0  0  0  0  0  0  0  0  0  0
    4.3004   -0.9691   -2.6913 N   0  0  0  0  0  0  0  0  0  0  0  0
    5.5581   -1.7620   -2.6432 C   0  0  0  0  0  0  0  0  0  0  0  0
    5.8703   -3.0005   -3.3121 C   0  0  0  0  0  0  0  0  0  0  0  0
    5.6999   -4.1720   -2.5599 C   0  0  0  0  0  0  0  0  0  0  0  0
    5.3906   -4.0258   -1.1664 C   0  0  0  0  0  0  0  0  0  0  0  0
    4.0637   -4.2464   -0.5288 N   0  0  0  0  0  0  0  0  0  0  0  0
    2.6789   -4.3174   -0.0020 C   0  0  0  0  0  0  0  0  0  0  0  0
    1.6601   -4.6409   -1.0093 C   0  0  0  0  0  0  0  0  0  0  0  0
    0.9067   -3.6790   -1.7628 C   0  0  0  0  0  0  0  0  0  0  0  0
   -0.3647   -3.5543   -1.0846 C   0  0  0  0  0  0  0  0  0  0  0  0
   -0.9467   -4.8488   -1.1650 C   0  0  0  0  0  0  0  0  0  0  0  0
   -0.2609   -5.7202   -2.0841 C   0  0  0  0  0  0  0  0  0  0  0  0
    0.8819   -5.8233   -1.2314 C   0  0  0  0  0  0  0  0  0  0  0  0
   -0.3327   -5.8387   -3.6095 C   0  0  0  0  0  0  0  0  0  0  0  0
   -1.6158   -5.4047   -4.1773 N   0  0  0  0  0  0  0  0  0  0  0  0
   -3.0401   -5.2478   -4.5562 C   0  0  0  0  0  0  0  0  0  0  0  0
   -3.5502   -5.1925   -5.8943 C   0  0  0  0  0  0  0  0  0  0  0  0
   -4.2041   -4.0360   -6.2167 C   0  0  0  0  0  0  0  0  0  0  0  0
   -4.2505   -3.0738   -5.1580 C   0  0  0  0  0  0  0  0  0  0  0  0
   -4.8514   -3.7955   -4.0787 C   0  0  0  0  0  0  0  0  0  0  0  0
   -4.1967   -4.9843   -3.7555 C   0  0  0  0  0  0  0  0  0  0  0  0
   -4.8093   -5.7656   -2.6854 C   0  0  0  0  0  0  0  0  0  0  0  0
   -4.5699   -7.0939   -2.4599 C   0  0  0  0  0  0  0  0  0  0  0  0
   -5.3605   -7.8050   -1.5979 C   0  0  0  0  0  0  0  0  0  0  0  0
   -6.0803   -7.0764   -0.6640 C   0  0  0  0  0  0  0  0  0  0  0  0
   -5.9092   -5.7114   -0.5758 C   0  0  0  0  0  0  0  0  0  0  0  0
   -5.2437   -5.0424   -1.5788 C   0  0  0  0  0  0  0  0  0  0  0  0
   -3.6684   -1.7067   -5.1519 N   0  0  0  0  0  0  0  0  0  0  0  0
   -3.4722   -0.2560   -5.1973 C   0  0  0  0  0  0  0  0  0  0  0  0
   -4.2995    0.5287   -4.1766 C   0  0  0  0  0  0  0  0  0  0  0  0
   -4.8397    0.1531   -2.8978 C   0  0  0  0  0  0  0  0  0  0  0  0
   -3.8757    0.2049   -1.8488 C   0  0  0  0  0  0  0  0  0  0  0  0
   -2.7600    0.9227   -2.4106 C   0  0  0  0  0  0  0  0  0  0  0  0
   -3.2244    2.2309   -2.7858 C   0  0  0  0  0  0  0  0  0  0  0  0
   -4.1786    1.9044   -3.7985 C   0  0  0  0  0  0  0  0  0  0  0  0
   -3.1354    3.4623   -1.9803 C   0  0  0  0  0  0  0  0  0  0  0  0
   -2.4851    4.6179   -2.6269 N   0  0  0  0  0  0  0  0  0  0  0  0
   -2.1443    5.8263   -3.4030 C   0  0  0  0  0  0  0  0  0  0  0  0
   -2.0986    6.0174   -4.8238 C   0  0  0  0  0  0  0  0  0  0  0  0
   -0.8143    6.2827   -5.3178 C   0  0  0  0  0  0  0  0  0  0  0  0
    0.2144    6.2846   -4.3173 C   0  0  0  0  0  0  0  0  0  0  0  0
   -0.2632    7.2699   -3.3894 C   0  0  0  0  0  0  0  0  0  0  0  0
   -1.5635    7.0466   -2.9146 C   0  0  0  0  0  0  0  0  0  0  0  0
   -2.0885    8.0329   -1.9861 C   0  0  0  0  0  0  0  0  0  0  0  0
   -3.4239    8.2060   -1.6989 C   0  0  0  0  0  0  0  0  0  0  0  0
   -3.9048    9.0508   -0.7349 C   0  0  0  0  0  0  0  0  0  0  0  0
   -2.9792    9.8457   -0.0710 C   0  0  0  0  0  0  0  0  0  0  0  0
   -1.6262    9.5750   -0.2348 C   0  0  0  0  0  0  0  0  0  0  0  0
   -1.2026    8.5235   -1.0338 C   0  0  0  0  0  0  0  0  0  0  0  0
    1.3438    5.3439   -4.1607 N   0  0  0  0  0  0  0  0  0  0  0  0
    2.5272    4.4685   -4.0697 C   0  0  0  0  0  0  0  0  0  0  0  0
   -4.0923   -0.0708   -0.4218 C   0  0  0  0  0  0  0  0  0  0  0  0
   -4.8093    0.9444    0.3657 N   0  0  0  0  0  0  0  0  0  0  0  0
   -5.8156    1.7736    1.0699 C   0  0  0  0  0  0  0  0  0  0  0  0
   -6.5230    1.4615    2.2851 C   0  0  0  0  0  0  0  0  0  0  0  0
   -6.2112    2.2639    3.3868 C   0  0  0  0  0  0  0  0  0  0  0  0
   -5.1960    3.2414    3.1087 C   0  0  0  0  0  0  0  0  0  0  0  0
   -5.7745    3.9468    1.9986 C   0  0  0  0  0  0  0  0  0  0  0  0
   -6.1199    3.1605    0.8883 C   0  0  0  0  0  0  0  0  0  0  0  0
   -6.8709    3.8096   -0.1936 C   0  0  0  0  0  0  0  0  0  0  0  0
   -7.4804    3.1345   -1.2154 C   0  0  0  0  0  0  0  0  0  0  0  0
   -8.3231    3.8209   -2.0742 C   0  0  0  0  0  0  0  0  0  0  0  0
   -8.1285    5.1801   -2.2674 C   0  0  0  0  0  0  0  0  0  0  0  0
   -7.2103    5.7963   -1.4498 C   0  0  0  0  0  0  0  0  0  0  0  0
   -6.6273    5.1440   -0.3692 C   0  0  0  0  0  0  0  0  0  0  0  0
   -3.8385    3.2957    3.7056 N   0  0  0  0  0  0  0  0  0  0  0  0
   -2.4989    3.5926    4.2518 C   0  0  0  0  0  0  0  0  0  0  0  0
   -1.6021    4.3652    3.3691 C   0  0  0  0  0  0  0  0  0  0  0  0
   -0.2959    4.8266    3.6886 C   0  0  0  0  0  0  0  0  0  0  0  0
    0.8102    3.9785    3.3746 C   0  0  0  0  0  0  0  0  0  0  0  0
    0.6769    4.0513    1.9649 C   0  0  0  0  0  0  0  0  0  0  0  0
   -0.4634    3.3513    1.4868 C   0  0  0  0  0  0  0  0  0  0  0  0
   -1.4372    4.2710    1.9596 C   0  0  0  0  0  0  0  0  0  0  0  0
   -0.6341    1.9594    1.0571 C   0  0  0  0  0  0  0  0  0  0  0  0
   -1.1085    1.0000    2.0712 N   0  0  0  0  0  0  0  0  0  0  0  0
   -1.5760    0.0405    3.1076 C   0  0  0  0  0  0  0  0  0  0  0  0
   -0.7872   -0.7179    4.0490 C   0  0  0  0  0  0  0  0  0  0  0  0
   -0.7093   -2.0937    3.7286 C   0  0  0  0  0  0  0  0  0  0  0  0
   -1.4633   -2.5010    2.5624 C   0  0  0  0  0  0  0  0  0  0  0  0
   -0.9916   -2.5657    1.1514 N   0  0  0  0  0  0  0  0  0  0  0  0
   -0.7551   -2.3986   -0.2948 C   0  0  0  0  0  0  0  0  0  0  0  0
   -2.7605   -2.0391    3.0238 C   0  0  0  0  0  0  0  0  0  0  0  0
   -2.8365   -0.6464    3.2785 C   0  0  0  0  0  0  0  0  0  0  0  0
   -4.0053   -2.8102    3.1334 C   0  0  0  0  0  0  0  0  0  0  0  0
   -4.2204   -4.0033    2.4935 C   0  0  0  0  0  0  0  0  0  0  0  0
   -4.7044   -5.1352    3.1388 C   0  0  0  0  0  0  0  0  0  0  0  0
   -5.2878   -4.9842    4.3904 C   0  0  0  0  0  0  0  0  0  0  0  0
   -5.4041   -3.6968    4.8993 C   0  0  0  0  0  0  0  0  0  0  0  0
   -4.7386   -2.6320    4.3027 C   0  0  0  0  0  0  0  0  0  0  0  0
    1.4631    3.0353    4.2909 C   0  0  0  0  0  0  0  0  0  0  0  0
    2.1993    1.9262    3.6735 N   0  0  0  0  0  0  0  0  0  0  0  0
    6.3690   -3.0555   -0.7491 C   0  0  0  0  0  0  0  0  0  0  0  0
    6.4190   -1.8609   -1.4937 C   0  0  0  0  0  0  0  0  0  0  0  0
    7.4243   -3.2067    0.2709 C   0  0  0  0  0  0  0  0  0  0  0  0
    8.6838   -2.7218   -0.0705 C   0  0  0  0  0  0  0  0  0  0  0  0
    9.7070   -2.8294    0.8626 C   0  0  0  0  0  0  0  0  0  0  0  0
    9.7175   -3.9631    1.6658 C   0  0  0  0  0  0  0  0  0  0  0  0
    8.6086   -4.7996    1.6775 C   0  0  0  0  0  0  0  0  0  0  0  0
    7.4626   -4.3094    1.1156 C   0  0  0  0  0  0  0  0  0  0  0  0
    9.0045   -1.1092    5.5371 H   0  0  0  0  0  0  0  0  0  0  0  0
    7.4911   -2.9392    4.8454 H   0  0  0  0  0  0  0  0  0  0  0  0
    5.5420   -2.3635    3.4728 H   0  0  0  0  0  0  0  0  0  0  0  0
    7.2476    1.4024    2.6583 H   0  0  0  0  0  0  0  0  0  0  0  0
    9.0603    0.9480    4.3040 H   0  0  0  0  0  0  0  0  0  0  0  0
    4.4154   -0.2466    4.5327 H   0  0  0  0  0  0  0  0  0  0  0  0
    1.5132   -0.7443    2.0286 H   0  0  0  0  0  0  0  0  0  0  0  0
    3.1024   -1.0837    0.3352 H   0  0  0  0  0  0  0  0  0  0  0  0
    4.5149    2.3311    0.7911 H   0  0  0  0  0  0  0  0  0  0  0  0
    6.0347    3.2489   -0.2292 H   0  0  0  0  0  0  0  0  0  0  0  0
    6.3672    1.8827   -1.0198 H   0  0  0  0  0  0  0  0  0  0  0  0
    3.0424    4.2754   -0.8511 H   0  0  0  0  0  0  0  0  0  0  0  0
    1.0239    1.9628   -2.6129 H   0  0  0  0  0  0  0  0  0  0  0  0
    4.8878    2.3315   -3.9512 H   0  0  0  0  0  0  0  0  0  0  0  0
    2.5473   -0.6775   -1.9261 H   0  0  0  0  0  0  0  0  0  0  0  0
    2.6195   -0.7259   -3.6811 H   0  0  0  0  0  0  0  0  0  0  0  0
    4.5849   -0.3662   -3.5076 H   0  0  0  0  0  0  0  0  0  0  0  0
    6.2443   -3.1333   -4.3306 H   0  0  0  0  0  0  0  0  0  0  0  0
    5.9529   -5.0935   -3.0929 H   0  0  0  0  0  0  0  0  0  0  0  0
    4.2512   -5.1799   -0.1309 H   0  0  0  0  0  0  0  0  0  0  0  0
    2.5529   -3.3661    0.5932 H   0  0  0  0  0  0  0  0  0  0  0  0
    2.7607   -4.8969    0.9522 H   0  0  0  0  0  0  0  0  0  0  0  0
    1.2151   -3.2019   -2.7045 H   0  0  0  0  0  0  0  0  0  0  0  0
   -1.9580   -5.1656   -0.8353 H   0  0  0  0  0  0  0  0  0  0  0  0
    1.2437   -6.8386   -0.9562 H   0  0  0  0  0  0  0  0  0  0  0  0
   -0.2716   -6.8752   -3.9636 H   0  0  0  0  0  0  0  0  0  0  0  0
    0.3847   -5.2421   -4.1696 H   0  0  0  0  0  0  0  0  0  0  0  0
   -1.3361   -4.4237   -4.1206 H   0  0  0  0  0  0  0  0  0  0  0  0
   -3.5488   -5.9831   -6.6472 H   0  0  0  0  0  0  0  0  0  0  0  0
   -4.6600   -3.9722   -7.2066 H   0  0  0  0  0  0  0  0  0  0  0  0
   -5.7796   -3.5673   -3.5504 H   0  0  0  0  0  0  0  0  0  0  0  0
   -3.9844   -7.6167   -3.2182 H   0  0  0  0  0  0  0  0  0  0  0  0
   -5.5376   -8.8733   -1.7277 H   0  0  0  0  0  0  0  0  0  0  0  0
   -6.8738   -7.5571   -0.1001 H   0  0  0  0  0  0  0  0  0  0  0  0
   -6.4542   -5.1220    0.1630 H   0  0  0  0  0  0  0  0  0  0  0  0
   -5.1851   -3.9638   -1.5424 H   0  0  0  0  0  0  0  0  0  0  0  0
   -2.7351   -1.9220   -4.7913 H   0  0  0  0  0  0  0  0  0  0  0  0
   -2.3946   -0.1294   -5.1484 H   0  0  0  0  0  0  0  0  0  0  0  0
   -3.7661   -0.0196   -6.2448 H   0  0  0  0  0  0  0  0  0  0  0  0
   -5.8448   -0.3154   -2.8828 H   0  0  0  0  0  0  0  0  0  0  0  0
   -1.7486    0.5339   -2.6030 H   0  0  0  0  0  0  0  0  0  0  0  0
   -4.6834    2.6616   -4.4414 H   0  0  0  0  0  0  0  0  0  0  0  0
   -2.4784    3.4306   -1.0696 H   0  0  0  0  0  0  0  0  0  0  0  0
   -4.0290    3.7834   -1.3854 H   0  0  0  0  0  0  0  0  0  0  0  0
   -1.6061    4.1082   -2.6541 H   0  0  0  0  0  0  0  0  0  0  0  0
   -2.9000    6.0224   -5.5370 H   0  0  0  0  0  0  0  0  0  0  0  0
   -0.7116    6.4618   -6.3858 H   0  0  0  0  0  0  0  0  0  0  0  0
    0.2470    8.1850   -3.0785 H   0  0  0  0  0  0  0  0  0  0  0  0
   -4.1219    7.8783   -2.4715 H   0  0  0  0  0  0  0  0  0  0  0  0
   -4.9664    9.1664   -0.6030 H   0  0  0  0  0  0  0  0  0  0  0  0
   -3.3666   10.4136    0.7677 H   0  0  0  0  0  0  0  0  0  0  0  0
   -0.9447   10.3502    0.1204 H   0  0  0  0  0  0  0  0  0  0  0  0
   -0.1372    8.3709   -1.0846 H   0  0  0  0  0  0  0  0  0  0  0  0
    0.8631    4.6095   -3.6153 H   0  0  0  0  0  0  0  0  0  0  0  0
    3.3844    5.1362   -4.1515 H   0  0  0  0  0  0  0  0  0  0  0  0
    2.6796    3.9302   -5.0397 H   0  0  0  0  0  0  0  0  0  0  0  0
   -4.4335   -1.1138   -0.1469 H   0  0  0  0  0  0  0  0  0  0  0  0
   -3.1716   -0.2509    0.2068 H   0  0  0  0  0  0  0  0  0  0  0  0
   -3.9565    1.2811    0.8121 H   0  0  0  0  0  0  0  0  0  0  0  0
   -7.2639    0.6883    2.4497 H   0  0  0  0  0  0  0  0  0  0  0  0
   -6.7347    2.0796    4.3137 H   0  0  0  0  0  0  0  0  0  0  0  0
   -5.9831    5.0173    1.9369 H   0  0  0  0  0  0  0  0  0  0  0  0
   -7.3869    2.0476   -1.2580 H   0  0  0  0  0  0  0  0  0  0  0  0
   -9.0086    3.2638   -2.7029 H   0  0  0  0  0  0  0  0  0  0  0  0
   -8.6308    5.7209   -3.0686 H   0  0  0  0  0  0  0  0  0  0  0  0
   -6.8644    6.7780   -1.7804 H   0  0  0  0  0  0  0  0  0  0  0  0
   -5.7455    5.6572    0.0221 H   0  0  0  0  0  0  0  0  0  0  0  0
   -3.3401    2.7014    3.0252 H   0  0  0  0  0  0  0  0  0  0  0  0
   -2.8402    4.1126    5.1858 H   0  0  0  0  0  0  0  0  0  0  0  0
   -2.1580    2.6197    4.6294 H   0  0  0  0  0  0  0  0  0  0  0  0
   -0.1395    5.8160    4.1802 H   0  0  0  0  0  0  0  0  0  0  0  0
    1.4432    4.5068    1.3067 H   0  0  0  0  0  0  0  0  0  0  0  0
   -2.0666    4.8774    1.2712 H   0  0  0  0  0  0  0  0  0  0  0  0
    0.2718    1.4545    0.6222 H   0  0  0  0  0  0  0  0  0  0  0  0
   -1.2482    1.8000    0.1275 H   0  0  0  0  0  0  0  0  0  0  0  0
   -1.0418    0.3191    1.2708 H   0  0  0  0  0  0  0  0  0  0  0  0
   -0.1789   -0.3108    4.8615 H   0  0  0  0  0  0  0  0  0  0  0  0
   -0.0287   -2.6610    4.3299 H   0  0  0  0  0  0  0  0  0  0  0  0
   -0.7199   -3.5407    1.1204 H   0  0  0  0  0  0  0  0  0  0  0  0
   -0.0245   -1.5463   -0.1905 H   0  0  0  0  0  0  0  0  0  0  0  0
   -1.5455   -1.7449   -0.7705 H   0  0  0  0  0  0  0  0  0  0  0  0
   -3.7922   -0.1859    3.5437 H   0  0  0  0  0  0  0  0  0  0  0  0
   -3.6676   -4.1599    1.5659 H   0  0  0  0  0  0  0  0  0  0  0  0
   -4.6268   -6.1295    2.7197 H   0  0  0  0  0  0  0  0  0  0  0  0
   -5.2901   -5.8670    5.0323 H   0  0  0  0  0  0  0  0  0  0  0  0
   -5.9202   -3.6103    5.8438 H   0  0  0  0  0  0  0  0  0  0  0  0
   -4.6108   -1.7492    4.9319 H   0  0  0  0  0  0  0  0  0  0  0  0
    0.8470    2.4827    5.0453 H   0  0  0  0  0  0  0  0  0  0  0  0
    2.2725    3.4901    4.9259 H   0  0  0  0  0  0  0  0  0  0  0  0
    2.6854    2.6181    3.0843 H   0  0  0  0  0  0  0  0  0  0  0  0
    7.1639   -1.1231   -1.1774 H   0  0  0  0  0  0  0  0  0  0  0  0
    8.8729   -2.2234   -1.0233 H   0  0  0  0  0  0  0  0  0  0  0  0
   10.6266   -2.3035    0.6417 H   0  0  0  0  0  0  0  0  0  0  0  0
   10.5133   -4.1158    2.3849 H   0  0  0  0  0  0  0  0  0  0  0  0
    8.6410   -5.7385    2.2296 H   0  0  0  0  0  0  0  0  0  0  0  0
    6.5136   -4.7696    1.3564 H   0  0  0  0  0  0  0  0  0  0  0  0
  1  2  2  0
  2  3  1  0
  3  4  2  0
  4  5  1  0
  5  6  2  0
  4  7  1  0
  7  8  2  0
  8  9  1  0
  9 10  2  0
 10 11  1  0
 11 12  2  0
 12 13  1  0
 13 14  1  0
 14 15  1  0
 15 16  1  0
 16 17  2  0
 17 18  1  0
 18 19  2  0
 19 20  1  0
 19 21  1  0
 21 22  1  0
 22 23  1  0
 23 24  2  0
 24 25  1  0
 25 26  2  0
 26 27  1  0
 27 28  1  0
 28 29  1  0
 29 30  1  0
 30 31  2  0
 31 32  1  0
 32 33  2  0
 33 34  1  0
 33 35  1  0
 35 36  1  0
 36 37  1  0
 37 38  2  0
 38 39  1  0
 39 40  2  0
 40 41  1  0
 41 42  2  0
 42 43  1  0
 43 44  2  0
 44 45  1  0
 45 46  2  0
 46 47  1  0
 47 48  2  0
 40 49  1  0
 49 50  1  0
 50 51  1  0
 51 52  2  0
 52 53  1  0
 53 54  2  0
 54 55  1  0
 55 56  2  0
 55 57  1  0
 57 58  1  0
 58 59  1  0
 59 60  2  0
 60 61  1  0
 61 62  2  0
 62 63  1  0
 63 64  2  0
 64 65  1  0
 65 66  2  0
 66 67  1  0
 67 68  2  0
 68 69  1  0
 69 70  2  0
 62 71  1  0
 71 72  1  0
 53 73  1  0
 73 74  1  0
 74 75  1  0
 75 76  2  0
 76 77  1  0
 77 78  2  0
 78 79  1  0
 79 80  2  0
 80 81  1  0
 81 82  2  0
 82 83  1  0
 83 84  2  0
 84 85  1  0
 85 86  2  0
 78 87  1  0
 87 88  1  0
 88 89  1  0
 89 90  2  0
 90 91  1  0
 91 92  2  0
 92 93  1  0
 93 94  2  0
 93 95  1  0
 95 96  1  0
 96 97  1  0
 97 98  2  0
 98 99  1  0
 99100  2  0
100101  1  0
101102  1  0
100103  1  0
103104  2  0
103105  1  0
105106  2  0
106107  1  0
107108  2  0
108109  1  0
109110  2  0
 91111  1  0
111112  1  0
 26113  1  0
113114  2  0
113115  1  0
115116  2  0
116117  1  0
117118  2  0
118119  1  0
119120  2  0
  6  1  1  0
 12  7  1  0
 20 15  2  0
114 23  1  0
120115  1  0
112  9  1  0
 72 17  1  0
 80 75  1  0
 86 81  1  0
 94 89  1  0
104 97  1  0
110105  1  0
 34 29  2  0
 42 37  1  0
 48 43  1  0
 56 51  1  0
 64 59  1  0
 70 65  1  0
102 31  1  0
  1121  1  0
  2122  1  0
  3123  1  0
  5124  1  0
  6125  1  0
  8126  1  0
 10127  1  0
 11128  1  0
 13129  1  0
 14130  1  0
 14131  1  0
 16132  1  0
 18133  1  0
 20134  1  0
 21135  1  0
 21136  1  0
 22137  1  0
 24138  1  0
 25139  1  0
 27140  1  0
 28141  1  0
 28142  1  0
 30143  1  0
 32144  1  0
 34145  1  0
 35146  1  0
 35147  1  0
 36148  1  0
 38149  1  0
 39150  1  0
 41151  1  0
 44152  1  0
 45153  1  0
 46154  1  0
 47155  1  0
 48156  1  0
 49157  1  0
 50158  1  0
 50159  1  0
 52160  1  0
 54161  1  0
 56162  1  0
 57163  1  0
 57164  1  0
 58165  1  0
 60166  1  0
 61167  1  0
 63168  1  0
 66169  1  0
 67170  1  0
 68171  1  0
 69172  1  0
 70173  1  0
 71174  1  0
 72175  1  0
 72176  1  0
 73177  1  0
 73178  1  0
 74179  1  0
 76180  1  0
 77181  1  0
 79182  1  0
 82183  1  0
 83184  1  0
 84185  1  0
 85186  1  0
 86187  1  0
 87188  1  0
 88189  1  0
 88190  1  0
 90191  1  0
 92192  1  0
 94193  1  0
 95194  1  0
 95195  1  0
 96196  1  0
 98197  1  0
 99198  1  0
101199  1  0
102200  1  0
102201  1  0
104202  1  0
106203  1  0
107204  1  0
108205  1  0
109206  1  0
110207  1  0
111208  1  0
111209  1  0
112210  1  0
114211  1  0
116212  1  0
117213  1  0
118214  1  0
119215  1  0
120216  1  0
M  END
