
     RDKit          3D

150162  0  0  0  0  0  0  0  0999 V2000
    6.5281    4.0908   -3.2640 N   0  0  0  0  0  0  0  0  0  0  0  0
    6.0661    3.0791   -2.9522 C   0  0  0  0  0  0  0  0  0  0  0  0
    5.9445    1.7003   -2.5991 C   0  0  0  0  0  0  0  0  0  0  0  0
    5.7287    1.4400   -1.2482 C   0  0  0  0  0  0  0  0  0  0  0  0
    5.6946    0.0799   -0.9282 C   0  0  0  0  0  0  0  0  0  0  0  0
    5.8977   -0.8688   -1.8860 N   0  0  0  0  0  0  0  0  0  0  0  0
    5.3474   -0.5424   -3.0831 C   0  0  0  0  0  0  0  0  0  0  0  0
    5.5075    0.7494   -3.4607 N   0  0  0  0  0  0  0  0  0  0  0  0
    4.3450   -0.2463   -4.0644 N   0  0  0  0  0  0  0  0  0  0  0  0
    3.2866   -0.0551   -5.0178 C   0  0  0  0  0  0  0  0  0  0  0  0
    2.5739   -1.3519   -5.4290 C   0  0  0  0  0  0  0  0  0  0  0  0
    3.1632   -2.5992   -5.7915 C   0  0  0  0  0  0  0  0  0  0  0  0
    3.0653   -3.5946   -4.7663 C   0  0  0  0  0  0  0  0  0  0  0  0
    1.6537   -3.7956   -4.7379 C   0  0  0  0  0  0  0  0  0  0  0  0
    0.9174   -2.6529   -4.2874 C   0  0  0  0  0  0  0  0  0  0  0  0
    1.1959   -1.7327   -5.3423 C   0  0  0  0  0  0  0  0  0  0  0  0
    0.2992   -2.3406   -2.9154 C   0  0  0  0  0  0  0  0  0  0  0  0
   -1.1070   -1.9649   -3.0632 N   0  0  0  0  0  0  0  0  0  0  0  0
   -2.5277   -1.7782   -3.0517 C   0  0  0  0  0  0  0  0  0  0  0  0
   -2.0434   -0.8122   -3.8275 N   0  0  0  0  0  0  0  0  0  0  0  0
   -2.6782    0.3838   -3.7326 C   0  0  0  0  0  0  0  0  0  0  0  0
   -2.1027    1.5929   -4.2753 C   0  0  0  0  0  0  0  0  0  0  0  0
   -1.5218    2.5828   -4.4826 N   0  0  0  0  0  0  0  0  0  0  0  0
   -3.8203    0.5512   -2.9541 C   0  0  0  0  0  0  0  0  0  0  0  0
   -4.2664   -0.5813   -2.2683 C   0  0  0  0  0  0  0  0  0  0  0  0
   -3.7479   -1.8145   -2.5150 N   0  0  0  0  0  0  0  0  0  0  0  0
   -5.1283    0.5585   -2.1281 N   0  0  0  0  0  0  0  0  0  0  0  0
   -6.3531    1.2580   -1.8919 C   0  0  0  0  0  0  0  0  0  0  0  0
   -6.2837    2.1805   -0.6652 C   0  0  0  0  0  0  0  0  0  0  0  0
   -6.3835    1.8265    0.7154 C   0  0  0  0  0  0  0  0  0  0  0  0
   -5.1530    1.8687    1.4390 C   0  0  0  0  0  0  0  0  0  0  0  0
   -4.8442    3.2602    1.3598 C   0  0  0  0  0  0  0  0  0  0  0  0
   -4.5500    3.7097    0.0324 C   0  0  0  0  0  0  0  0  0  0  0  0
   -5.8431    3.5370   -0.5639 C   0  0  0  0  0  0  0  0  0  0  0  0
   -3.1836    3.9623   -0.6193 C   0  0  0  0  0  0  0  0  0  0  0  0
   -2.5732    5.2145   -0.1430 C   0  0  0  0  0  0  0  0  0  0  0  0
   -2.9597    5.3492   -1.4642 C   0  0  0  0  0  0  0  0  0  0  0  0
   -2.3110    6.2928   -2.2294 C   0  0  0  0  0  0  0  0  0  0  0  0
   -2.7863    6.4261   -3.5858 C   0  0  0  0  0  0  0  0  0  0  0  0
   -3.1553    6.6728   -4.6542 N   0  0  0  0  0  0  0  0  0  0  0  0
   -0.9941    6.4572   -1.9172 N   0  0  0  0  0  0  0  0  0  0  0  0
   -0.7203    6.4350   -0.5867 C   0  0  0  0  0  0  0  0  0  0  0  0
   -1.7304    6.1879    0.2986 N   0  0  0  0  0  0  0  0  0  0  0  0
    0.5127    6.0106   -1.2841 C   0  0  0  0  0  0  0  0  0  0  0  0
    0.1603    6.5104   -2.3632 O   0  0  0  0  0  0  0  0  0  0  0  0
    1.4030    4.9992   -1.7984 N   0  0  0  0  0  0  0  0  0  0  0  0
    1.8745    3.6223   -1.9896 C   0  0  0  0  0  0  0  0  0  0  0  0
    1.3538    2.7248   -0.8725 C   0  0  0  0  0  0  0  0  0  0  0  0
    0.3615    1.6964   -0.8930 C   0  0  0  0  0  0  0  0  0  0  0  0
    0.6314    0.5960   -0.0206 C   0  0  0  0  0  0  0  0  0  0  0  0
    2.0350    0.4262   -0.2079 C   0  0  0  0  0  0  0  0  0  0  0  0
    2.7940    1.4155    0.4843 C   0  0  0  0  0  0  0  0  0  0  0  0
    1.9399    2.5611    0.4158 C   0  0  0  0  0  0  0  0  0  0  0  0
    4.1732    1.2581    1.1134 C   0  0  0  0  0  0  0  0  0  0  0  0
    5.1970    0.9426    0.1161 N   0  0  0  0  0  0  0  0  0  0  0  0
   -0.2349   -0.0255    1.0833 C   0  0  0  0  0  0  0  0  0  0  0  0
   -0.7442   -1.3014    0.5825 N   0  0  0  0  0  0  0  0  0  0  0  0
   -1.2162   -2.6517    0.6418 C   0  0  0  0  0  0  0  0  0  0  0  0
   -2.4573   -2.3921    0.7092 O   0  0  0  0  0  0  0  0  0  0  0  0
   -1.4791   -4.0094    1.1529 C   0  0  0  0  0  0  0  0  0  0  0  0
   -2.4610   -3.2067    1.6455 N   0  0  0  0  0  0  0  0  0  0  0  0
   -2.7909   -3.3600    2.9607 C   0  0  0  0  0  0  0  0  0  0  0  0
   -4.0368   -2.9172    3.4913 C   0  0  0  0  0  0  0  0  0  0  0  0
   -5.1522   -2.8096    3.7449 N   0  0  0  0  0  0  0  0  0  0  0  0
   -1.7663   -3.8946    3.7351 C   0  0  0  0  0  0  0  0  0  0  0  0
   -1.1591   -5.0194    3.1911 C   0  0  0  0  0  0  0  0  0  0  0  0
   -0.5627   -4.8205    4.5238 C   0  0  0  0  0  0  0  0  0  0  0  0
    0.0812   -3.4455    4.6849 C   0  0  0  0  0  0  0  0  0  0  0  0
    1.1725   -2.9158    3.9371 C   0  0  0  0  0  0  0  0  0  0  0  0
    2.4373   -3.2011    4.5423 C   0  0  0  0  0  0  0  0  0  0  0  0
    2.1669   -2.9626    5.9229 C   0  0  0  0  0  0  0  0  0  0  0  0
    1.2477   -1.8890    6.0937 C   0  0  0  0  0  0  0  0  0  0  0  0
    0.0126   -2.5385    5.7819 C   0  0  0  0  0  0  0  0  0  0  0  0
    1.5227   -0.3943    6.3195 C   0  0  0  0  0  0  0  0  0  0  0  0
    0.6901    0.5128    5.5659 C   0  0  0  0  0  0  0  0  0  0  0  0
    0.0122    0.3579    6.7329 C   0  0  0  0  0  0  0  0  0  0  0  0
   -1.3159    0.7747    6.7667 C   0  0  0  0  0  0  0  0  0  0  0  0
   -1.9544    0.8091    8.0541 C   0  0  0  0  0  0  0  0  0  0  0  0
   -2.6337    0.6765    8.9702 N   0  0  0  0  0  0  0  0  0  0  0  0
   -2.0096    1.0237    5.6189 N   0  0  0  0  0  0  0  0  0  0  0  0
   -1.1805    1.3603    4.5981 C   0  0  0  0  0  0  0  0  0  0  0  0
    0.1465    1.3995    4.6989 N   0  0  0  0  0  0  0  0  0  0  0  0
   -2.5016    1.2763    4.0204 C   0  0  0  0  0  0  0  0  0  0  0  0
   -3.1039    0.9221    5.0454 O   0  0  0  0  0  0  0  0  0  0  0  0
   -3.5606    0.9868    3.0974 N   0  0  0  0  0  0  0  0  0  0  0  0
   -4.2318    0.7061    1.8463 C   0  0  0  0  0  0  0  0  0  0  0  0
    3.7171   -3.7692    3.8987 C   0  0  0  0  0  0  0  0  0  0  0  0
    3.9190   -3.1675    2.5432 C   0  0  0  0  0  0  0  0  0  0  0  0
    4.4751   -4.4264    2.5954 C   0  0  0  0  0  0  0  0  0  0  0  0
    4.8221   -4.9779    1.3678 C   0  0  0  0  0  0  0  0  0  0  0  0
    5.4569   -6.2626    1.4154 C   0  0  0  0  0  0  0  0  0  0  0  0
    5.7503   -7.3745    1.3747 N   0  0  0  0  0  0  0  0  0  0  0  0
    4.0193   -4.6032    0.3351 N   0  0  0  0  0  0  0  0  0  0  0  0
    3.7822   -3.2668    0.2938 C   0  0  0  0  0  0  0  0  0  0  0  0
    3.7454   -2.4970    1.3883 N   0  0  0  0  0  0  0  0  0  0  0  0
    3.4996   -3.7558   -1.0320 C   0  0  0  0  0  0  0  0  0  0  0  0
    3.3751   -4.9422   -0.6670 O   0  0  0  0  0  0  0  0  0  0  0  0
    3.7769   -4.0090   -2.4162 N   0  0  0  0  0  0  0  0  0  0  0  0
    4.1215   -4.1560   -3.8029 C   0  0  0  0  0  0  0  0  0  0  0  0
   -1.2938   -5.1590    1.8536 N   0  0  0  0  0  0  0  0  0  0  0  0
    6.2698    1.9911   -0.4696 H   0  0  0  0  0  0  0  0  0  0  0  0
    4.9113    0.5562   -4.4466 H   0  0  0  0  0  0  0  0  0  0  0  0
    3.6352    0.4924   -5.9324 H   0  0  0  0  0  0  0  0  0  0  0  0
    2.6249    0.6584   -4.5248 H   0  0  0  0  0  0  0  0  0  0  0  0
    3.7468   -2.7482   -6.7047 H   0  0  0  0  0  0  0  0  0  0  0  0
    1.1765   -4.7640   -4.9168 H   0  0  0  0  0  0  0  0  0  0  0  0
    0.4158   -1.2639   -5.9498 H   0  0  0  0  0  0  0  0  0  0  0  0
    0.8795   -1.6038   -2.3461 H   0  0  0  0  0  0  0  0  0  0  0  0
    0.2619   -3.2169   -2.2629 H   0  0  0  0  0  0  0  0  0  0  0  0
   -0.9472   -1.1944   -3.7558 H   0  0  0  0  0  0  0  0  0  0  0  0
   -3.7669    1.4025   -2.2631 H   0  0  0  0  0  0  0  0  0  0  0  0
   -4.9866    0.7977   -3.1481 H   0  0  0  0  0  0  0  0  0  0  0  0
   -7.2543    0.5941   -1.8382 H   0  0  0  0  0  0  0  0  0  0  0  0
   -6.5829    1.8196   -2.8130 H   0  0  0  0  0  0  0  0  0  0  0  0
   -7.3188    1.4812    1.1708 H   0  0  0  0  0  0  0  0  0  0  0  0
   -4.6956    3.8873    2.2443 H   0  0  0  0  0  0  0  0  0  0  0  0
   -6.3839    4.3680   -1.0293 H   0  0  0  0  0  0  0  0  0  0  0  0
   -3.0986    3.7096   -1.6632 H   0  0  0  0  0  0  0  0  0  0  0  0
   -2.4416    3.1829   -0.2631 H   0  0  0  0  0  0  0  0  0  0  0  0
   -3.9687    5.0254   -1.5767 H   0  0  0  0  0  0  0  0  0  0  0  0
    1.2840    5.2571   -2.7915 H   0  0  0  0  0  0  0  0  0  0  0  0
    1.5160    3.3546   -2.9852 H   0  0  0  0  0  0  0  0  0  0  0  0
    2.9586    3.6589   -2.0963 H   0  0  0  0  0  0  0  0  0  0  0  0
   -0.5473    1.7548   -1.4918 H   0  0  0  0  0  0  0  0  0  0  0  0
    2.4554   -0.4040   -0.7768 H   0  0  0  0  0  0  0  0  0  0  0  0
    1.7577    3.2389    1.2513 H   0  0  0  0  0  0  0  0  0  0  0  0
    4.5572    2.1628    1.5788 H   0  0  0  0  0  0  0  0  0  0  0  0
    4.1707    0.5187    1.9510 H   0  0  0  0  0  0  0  0  0  0  0  0
    4.7107    1.5396   -0.6085 H   0  0  0  0  0  0  0  0  0  0  0  0
   -1.1361    0.5546    1.3041 H   0  0  0  0  0  0  0  0  0  0  0  0
    0.2598   -0.1096    2.0543 H   0  0  0  0  0  0  0  0  0  0  0  0
   -1.6713   -0.9539    0.2269 H   0  0  0  0  0  0  0  0  0  0  0  0
   -1.9501   -4.0011    4.7753 H   0  0  0  0  0  0  0  0  0  0  0  0
    0.2353   -5.6237    4.5580 H   0  0  0  0  0  0  0  0  0  0  0  0
   -1.1258   -5.2069    5.3536 H   0  0  0  0  0  0  0  0  0  0  0  0
    1.0525   -2.3908    2.9900 H   0  0  0  0  0  0  0  0  0  0  0  0
    2.6939   -3.4256    6.7547 H   0  0  0  0  0  0  0  0  0  0  0  0
   -0.9182   -2.3125    6.3071 H   0  0  0  0  0  0  0  0  0  0  0  0
    1.7765   -0.1516    7.3511 H   0  0  0  0  0  0  0  0  0  0  0  0
    2.5349   -0.1298    5.8794 H   0  0  0  0  0  0  0  0  0  0  0  0
    0.2511   -0.4836    7.3317 H   0  0  0  0  0  0  0  0  0  0  0  0
   -4.2139    0.5480    3.7598 H   0  0  0  0  0  0  0  0  0  0  0  0
   -4.7947   -0.2010    2.0887 H   0  0  0  0  0  0  0  0  0  0  0  0
   -3.5413    0.4264    1.0317 H   0  0  0  0  0  0  0  0  0  0  0  0
    3.5957   -4.8607    3.8847 H   0  0  0  0  0  0  0  0  0  0  0  0
    4.6050   -3.3887    4.4592 H   0  0  0  0  0  0  0  0  0  0  0  0
    5.0843   -4.5366    3.4808 H   0  0  0  0  0  0  0  0  0  0  0  0
    3.4072   -4.9937   -2.3458 H   0  0  0  0  0  0  0  0  0  0  0  0
    4.3556   -5.2190   -4.0744 H   0  0  0  0  0  0  0  0  0  0  0  0
    5.0872   -3.6546   -3.8919 H   0  0  0  0  0  0  0  0  0  0  0  0
  1  2  3  0
  2  3  1  0
  3  4  2  0
  4  5  1  0
  5  6  2  0
  6  7  1  0
  7  8  2  0
  7  9  1  0
  9 10  1  0
 10 11  1  0
 11 12  2  0
 12 13  1  0
 13 14  2  0
 14 15  1  0
 15 16  2  0
 15 17  1  0
 17 18  1  0
 18 19  1  0
 19 20  2  0
 20 21  1  0
 21 22  1  0
 22 23  3  0
 21 24  2  0
 24 25  1  0
 25 26  2  0
 25 27  1  0
 27 28  1  0
 28 29  1  0
 29 30  2  0
 30 31  1  0
 31 32  2  0
 32 33  1  0
 33 34  2  0
 33 35  1  0
 35 36  1  0
 36 37  2  0
 37 38  1  0
 38 39  1  0
 39 40  3  0
 38 41  2  0
 41 42  1  0
 42 43  2  0
 42 44  1  0
 44 45  2  0
 44 46  1  0
 46 47  1  0
 47 48  1  0
 48 49  1  0
 49 50  2  0
 50 51  1  0
 51 52  2  0
 52 53  1  0
 52 54  1  0
 54 55  1  0
 50 56  1  0
 56 57  1  0
 57 58  1  0
 58 59  2  0
 58 60  1  0
 60 61  1  0
 61 62  2  0
 62 63  1  0
 63 64  3  0
 62 65  1  0
 65 66  2  0
 66 67  1  0
 67 68  1  0
 68 69  1  0
 69 70  2  0
 70 71  1  0
 71 72  2  0
 72 73  1  0
 72 74  1  0
 74 75  1  0
 75 76  1  0
 76 77  2  0
 77 78  1  0
 78 79  3  0
 77 80  1  0
 80 81  2  0
 81 82  1  0
 81 83  1  0
 83 84  2  0
 83 85  1  0
 85 86  1  0
 70 87  1  0
 87 88  1  0
 88 89  1  0
 89 90  2  0
 90 91  1  0
 91 92  3  0
 90 93  1  0
 93 94  2  0
 94 95  1  0
 94 96  1  0
 96 97  2  0
 96 98  1  0
 98 99  1  0
 66100  1  0
  8  3  1  0
 16 11  1  0
 26 19  1  0
 34 29  1  0
 43 36  1  0
 53 48  2  0
100 60  2  0
 55  5  1  0
 73 68  2  0
 82 75  2  0
 95 88  2  0
 99 13  1  0
 86 31  1  0
  4101  1  0
  9102  1  0
 10103  1  0
 10104  1  0
 12105  1  0
 14106  1  0
 16107  1  0
 17108  1  0
 17109  1  0
 18110  1  0
 24111  1  0
 27112  1  0
 28113  1  0
 28114  1  0
 30115  1  0
 32116  1  0
 34117  1  0
 35118  1  0
 35119  1  0
 37120  1  0
 46121  1  0
 47122  1  0
 47123  1  0
 49124  1  0
 51125  1  0
 53126  1  0
 54127  1  0
 54128  1  0
 55129  1  0
 56130  1  0
 56131  1  0
 57132  1  0
 65133  1  0
 67134  1  0
 67135  1  0
 69136  1  0
 71137  1  0
 73138  1  0
 74139  1  0
 74140  1  0
 76141  1  0
 85142  1  0
 86143  1  0
 86144  1  0
 87145  1  0
 87146  1  0
 89147  1  0
 98148  1  0
 99149  1  0
 99150  1  0
M  END
