
     RDKit          3D

216234  0  0  0  0  0  0  0  0999 V2000
    4.0592    0.4960    0.5976 O   0  0  0  0  0  0  0  0  0  0  0  0
    4.9447    0.5962    1.5032 C   0  0  0  0  0  0  0  0  0  0  0  0
    4.2203   -0.0927    2.4910 O   0  0  0  0  0  0  0  0  0  0  0  0
    3.5600   -0.3119    3.7408 C   0  0  0  0  0  0  0  0  0  0  0  0
    3.0017   -1.6215    3.7593 N   0  0  0  0  0  0  0  0  0  0  0  0
    1.5773   -1.6877    3.8397 C   0  0  0  0  0  0  0  0  0  0  0  0
    1.0344   -2.8194    4.7019 C   0  0  0  0  0  0  0  0  0  0  0  0
    1.5993   -3.3508    5.8976 C   0  0  0  0  0  0  0  0  0  0  0  0
    0.7826   -4.3060    6.5691 C   0  0  0  0  0  0  0  0  0  0  0  0
    0.6240   -5.2650    5.5200 C   0  0  0  0  0  0  0  0  0  0  0  0
   -0.2995   -4.8661    4.5076 C   0  0  0  0  0  0  0  0  0  0  0  0
   -0.2446   -3.4343    4.6027 C   0  0  0  0  0  0  0  0  0  0  0  0
   -1.2732   -5.7456    3.7377 C   0  0  0  0  0  0  0  0  0  0  0  0
   -0.6899   -6.5966    2.7528 N   0  0  0  0  0  0  0  0  0  0  0  0
   -1.6928   -7.3198    2.0570 C   0  0  0  0  0  0  0  0  0  0  0  0
   -1.6941   -7.0980    0.6427 O   0  0  0  0  0  0  0  0  0  0  0  0
   -1.9145   -6.8323   -0.7236 C   0  0  0  0  0  0  0  0  0  0  0  0
   -2.1819   -5.6260   -0.4442 O   0  0  0  0  0  0  0  0  0  0  0  0
   -1.3764   -6.3680   -2.0282 C   0  0  0  0  0  0  0  0  0  0  0  0
   -0.7096   -5.8366   -3.1396 C   0  0  0  0  0  0  0  0  0  0  0  0
   -1.1471   -4.5441   -3.1905 N   0  0  0  0  0  0  0  0  0  0  0  0
   -1.4732   -3.1675   -3.0707 N   0  0  0  0  0  0  0  0  0  0  0  0
   -1.7657   -1.7795   -3.1188 C   0  0  0  0  0  0  0  0  0  0  0  0
   -0.5661   -0.8368   -3.0086 C   0  0  0  0  0  0  0  0  0  0  0  0
   -0.4197    0.3950   -2.2917 C   0  0  0  0  0  0  0  0  0  0  0  0
    0.5144    0.4216   -1.2204 C   0  0  0  0  0  0  0  0  0  0  0  0
    1.3257   -0.7170   -1.4656 C   0  0  0  0  0  0  0  0  0  0  0  0
    1.8205   -1.0195   -2.7544 C   0  0  0  0  0  0  0  0  0  0  0  0
    0.7072   -0.9024   -3.6363 C   0  0  0  0  0  0  0  0  0  0  0  0
    3.2229   -1.5549   -3.0432 C   0  0  0  0  0  0  0  0  0  0  0  0
    3.6117   -2.6814   -2.1715 N   0  0  0  0  0  0  0  0  0  0  0  0
    3.7521   -3.0560   -0.8007 N   0  0  0  0  0  0  0  0  0  0  0  0
    3.6942   -3.2262    0.5520 C   0  0  0  0  0  0  0  0  0  0  0  0
    2.4468   -3.8432    0.7487 C   0  0  0  0  0  0  0  0  0  0  0  0
    0.9772   -4.1309    0.8055 C   0  0  0  0  0  0  0  0  0  0  0  0
    0.7752   -4.0608   -0.4055 O   0  0  0  0  0  0  0  0  0  0  0  0
   -0.2163   -3.3789    1.0130 O   0  0  0  0  0  0  0  0  0  0  0  0
   -1.1725   -2.3021    0.9890 C   0  0  0  0  0  0  0  0  0  0  0  0
   -2.4616   -2.6559    1.3186 N   0  0  0  0  0  0  0  0  0  0  0  0
   -3.5648   -2.2390    0.5316 C   0  0  0  0  0  0  0  0  0  0  0  0
   -3.8000   -0.7358    0.4689 C   0  0  0  0  0  0  0  0  0  0  0  0
   -3.3344    0.2615    1.3720 C   0  0  0  0  0  0  0  0  0  0  0  0
   -3.8404    1.5739    1.1551 C   0  0  0  0  0  0  0  0  0  0  0  0
   -3.4459    1.7590   -0.2058 C   0  0  0  0  0  0  0  0  0  0  0  0
   -4.2382    1.0466   -1.1595 C   0  0  0  0  0  0  0  0  0  0  0  0
   -4.7184   -0.0581   -0.3767 C   0  0  0  0  0  0  0  0  0  0  0  0
   -4.7395    1.5577   -2.5037 C   0  0  0  0  0  0  0  0  0  0  0  0
   -3.8480    1.5581   -3.5820 N   0  0  0  0  0  0  0  0  0  0  0  0
   -3.1244    1.2603   -4.7542 N   0  0  0  0  0  0  0  0  0  0  0  0
   -2.5900    0.8435   -5.9299 C   0  0  0  0  0  0  0  0  0  0  0  0
   -1.5475    1.7490   -6.0992 C   0  0  0  0  0  0  0  0  0  0  0  0
   -0.3575    2.5990   -6.2931 C   0  0  0  0  0  0  0  0  0  0  0  0
   -0.3931    2.7878   -5.0387 O   0  0  0  0  0  0  0  0  0  0  0  0
    0.9165    3.0448   -6.5388 O   0  0  0  0  0  0  0  0  0  0  0  0
    1.8932    3.8707   -7.1737 C   0  0  0  0  0  0  0  0  0  0  0  0
    3.1829    3.6519   -6.6055 N   0  0  0  0  0  0  0  0  0  0  0  0
    3.9323    4.8599   -6.3129 C   0  0  0  0  0  0  0  0  0  0  0  0
    3.2649    5.6574   -5.1769 C   0  0  0  0  0  0  0  0  0  0  0  0
    3.7075    6.8115   -4.4755 C   0  0  0  0  0  0  0  0  0  0  0  0
    3.9193    6.7153   -3.0632 C   0  0  0  0  0  0  0  0  0  0  0  0
    2.7542    6.0547   -2.5671 C   0  0  0  0  0  0  0  0  0  0  0  0
    2.5159    4.7880   -3.1614 C   0  0  0  0  0  0  0  0  0  0  0  0
    2.1068    5.2789   -4.4368 C   0  0  0  0  0  0  0  0  0  0  0  0
    2.8371    3.3649   -2.7120 C   0  0  0  0  0  0  0  0  0  0  0  0
    4.0497    3.2317   -1.9102 N   0  0  0  0  0  0  0  0  0  0  0  0
    4.8194    3.2289   -0.7139 N   0  0  0  0  0  0  0  0  0  0  0  0
    5.4413    3.2462    0.5000 C   0  0  0  0  0  0  0  0  0  0  0  0
    5.2653    1.9346    0.9442 C   0  0  0  0  0  0  0  0  0  0  0  0
    5.1422    1.0736   -0.1567 C   0  0  0  0  0  0  0  0  0  0  0  0
    6.1481    0.0958   -0.2986 C   0  0  0  0  0  0  0  0  0  0  0  0
    6.6571   -0.1380   -1.5727 C   0  0  0  0  0  0  0  0  0  0  0  0
    6.5936    0.8351   -2.5643 C   0  0  0  0  0  0  0  0  0  0  0  0
    5.5851    1.7874   -2.4587 C   0  0  0  0  0  0  0  0  0  0  0  0
    4.9779    1.9727   -1.2174 C   0  0  0  0  0  0  0  0  0  0  0  0
    5.1178    7.0680   -2.1682 C   0  0  0  0  0  0  0  0  0  0  0  0
    4.6711    7.8939   -1.0423 N   0  0  0  0  0  0  0  0  0  0  0  0
    4.6486    7.2745    0.2162 C   0  0  0  0  0  0  0  0  0  0  0  0
    3.3427    6.9634    0.7191 O   0  0  0  0  0  0  0  0  0  0  0  0
    2.1312    6.3982    1.1843 C   0  0  0  0  0  0  0  0  0  0  0  0
    2.6150    5.2373    1.0072 O   0  0  0  0  0  0  0  0  0  0  0  0
    0.8122    5.8475    0.7466 C   0  0  0  0  0  0  0  0  0  0  0  0
   -0.2159    5.2608   -0.0060 C   0  0  0  0  0  0  0  0  0  0  0  0
    0.0302    3.9228    0.0907 N   0  0  0  0  0  0  0  0  0  0  0  0
    0.3039    2.5354    0.1170 N   0  0  0  0  0  0  0  0  0  0  0  0
    0.4170    1.1275    0.1189 C   0  0  0  0  0  0  0  0  0  0  0  0
    0.6803    3.7244    1.2723 C   0  0  0  0  0  0  0  0  0  0  0  0
    0.2227    2.8566    2.2703 C   0  0  0  0  0  0  0  0  0  0  0  0
    0.9737    2.9645    3.4398 C   0  0  0  0  0  0  0  0  0  0  0  0
    1.5539    4.1684    3.8277 C   0  0  0  0  0  0  0  0  0  0  0  0
    1.4134    5.2580    2.9701 C   0  0  0  0  0  0  0  0  0  0  0  0
    1.3617    4.9003    1.6136 C   0  0  0  0  0  0  0  0  0  0  0  0
   -1.7958    2.9190   -5.3655 C   0  0  0  0  0  0  0  0  0  0  0  0
   -1.9424    4.1301   -6.0769 C   0  0  0  0  0  0  0  0  0  0  0  0
   -2.5711    5.1878   -5.4274 C   0  0  0  0  0  0  0  0  0  0  0  0
   -3.6817    4.8342   -4.6661 C   0  0  0  0  0  0  0  0  0  0  0  0
   -4.0232    3.4892   -4.5691 C   0  0  0  0  0  0  0  0  0  0  0  0
   -2.9349    2.6006   -4.5945 C   0  0  0  0  0  0  0  0  0  0  0  0
   -4.8174    2.3810    2.0204 C   0  0  0  0  0  0  0  0  0  0  0  0
   -4.3916    2.3761    3.4208 N   0  0  0  0  0  0  0  0  0  0  0  0
   -3.5116    2.3927    4.5387 N   0  0  0  0  0  0  0  0  0  0  0  0
   -2.3621    2.2646    5.2568 C   0  0  0  0  0  0  0  0  0  0  0  0
   -2.3631    0.9088    5.5846 C   0  0  0  0  0  0  0  0  0  0  0  0
   -2.3509   -0.3031    6.4236 C   0  0  0  0  0  0  0  0  0  0  0  0
   -3.4104    0.1267    6.9805 O   0  0  0  0  0  0  0  0  0  0  0  0
   -2.0146   -1.2178    7.4271 O   0  0  0  0  0  0  0  0  0  0  0  0
   -1.2817   -2.1112    8.2163 C   0  0  0  0  0  0  0  0  0  0  0  0
   -1.2421   -3.4540    7.7170 N   0  0  0  0  0  0  0  0  0  0  0  0
   -0.0001   -4.1380    7.8835 C   0  0  0  0  0  0  0  0  0  0  0  0
   -3.6665    0.3949    5.5787 C   0  0  0  0  0  0  0  0  0  0  0  0
   -3.9599   -0.8674    5.0106 C   0  0  0  0  0  0  0  0  0  0  0  0
   -5.3321   -1.1075    4.9069 C   0  0  0  0  0  0  0  0  0  0  0  0
   -6.1711   -0.0164    4.6823 C   0  0  0  0  0  0  0  0  0  0  0  0
   -5.6894    1.2902    4.7958 C   0  0  0  0  0  0  0  0  0  0  0  0
   -4.2955    1.3299    4.7335 C   0  0  0  0  0  0  0  0  0  0  0  0
    2.1207   -4.5443   -0.4218 C   0  0  0  0  0  0  0  0  0  0  0  0
    1.9793   -5.9152   -0.1883 C   0  0  0  0  0  0  0  0  0  0  0  0
    2.4703   -6.7307   -1.2033 C   0  0  0  0  0  0  0  0  0  0  0  0
    3.0761   -6.1880   -2.3318 C   0  0  0  0  0  0  0  0  0  0  0  0
    3.5071   -4.8660   -2.3637 C   0  0  0  0  0  0  0  0  0  0  0  0
    3.0201   -4.0493   -1.3733 C   0  0  0  0  0  0  0  0  0  0  0  0
   -2.4017   -4.5450   -2.6683 C   0  0  0  0  0  0  0  0  0  0  0  0
   -3.4891   -3.9671   -3.3233 C   0  0  0  0  0  0  0  0  0  0  0  0
   -4.7300   -4.4311   -2.8977 C   0  0  0  0  0  0  0  0  0  0  0  0
   -4.8809   -5.6181   -2.1898 C   0  0  0  0  0  0  0  0  0  0  0  0
   -3.7578   -6.3933   -1.9120 C   0  0  0  0  0  0  0  0  0  0  0  0
   -2.5651   -5.6542   -1.8276 C   0  0  0  0  0  0  0  0  0  0  0  0
    2.7847    0.4407    3.9415 H   0  0  0  0  0  0  0  0  0  0  0  0
    4.2906   -0.2456    4.5864 H   0  0  0  0  0  0  0  0  0  0  0  0
    3.4128   -2.2368    4.5094 H   0  0  0  0  0  0  0  0  0  0  0  0
    1.3034   -1.7367    2.7923 H   0  0  0  0  0  0  0  0  0  0  0  0
    1.2443   -0.6827    4.2050 H   0  0  0  0  0  0  0  0  0  0  0  0
    2.6026   -3.1143    6.2652 H   0  0  0  0  0  0  0  0  0  0  0  0
    1.0968   -6.2489    5.5730 H   0  0  0  0  0  0  0  0  0  0  0  0
   -1.1686   -2.8479    4.7430 H   0  0  0  0  0  0  0  0  0  0  0  0
   -2.0741   -5.2085    3.2396 H   0  0  0  0  0  0  0  0  0  0  0  0
   -1.8675   -6.4139    4.4173 H   0  0  0  0  0  0  0  0  0  0  0  0
    0.1055   -7.1526    3.1105 H   0  0  0  0  0  0  0  0  0  0  0  0
   -2.6873   -7.0952    2.4736 H   0  0  0  0  0  0  0  0  0  0  0  0
   -1.5131   -8.4099    2.2226 H   0  0  0  0  0  0  0  0  0  0  0  0
    0.1228   -6.2862   -3.6460 H   0  0  0  0  0  0  0  0  0  0  0  0
   -1.8750   -3.3853   -2.1210 H   0  0  0  0  0  0  0  0  0  0  0  0
   -2.3259   -1.5994   -4.0725 H   0  0  0  0  0  0  0  0  0  0  0  0
   -2.5118   -1.6154   -2.3459 H   0  0  0  0  0  0  0  0  0  0  0  0
   -0.9525    1.3004   -2.6149 H   0  0  0  0  0  0  0  0  0  0  0  0
    1.4720   -1.4266   -0.6348 H   0  0  0  0  0  0  0  0  0  0  0  0
    0.8208   -0.7784   -4.7209 H   0  0  0  0  0  0  0  0  0  0  0  0
    3.3026   -2.0454   -4.0205 H   0  0  0  0  0  0  0  0  0  0  0  0
    3.9757   -0.7664   -3.0873 H   0  0  0  0  0  0  0  0  0  0  0  0
    2.6231   -2.9788   -2.1528 H   0  0  0  0  0  0  0  0  0  0  0  0
    4.4637   -3.0579    1.2807 H   0  0  0  0  0  0  0  0  0  0  0  0
   -1.1953   -1.8867   -0.0508 H   0  0  0  0  0  0  0  0  0  0  0  0
   -0.7783   -1.4745    1.6298 H   0  0  0  0  0  0  0  0  0  0  0  0
   -2.5824   -3.6368    1.5742 H   0  0  0  0  0  0  0  0  0  0  0  0
   -4.4463   -2.7728    0.9808 H   0  0  0  0  0  0  0  0  0  0  0  0
   -3.4037   -2.7107   -0.4330 H   0  0  0  0  0  0  0  0  0  0  0  0
   -2.5798    0.0783    2.1465 H   0  0  0  0  0  0  0  0  0  0  0  0
   -2.6572    2.4653   -0.4809 H   0  0  0  0  0  0  0  0  0  0  0  0
   -5.8026   -0.2606   -0.3085 H   0  0  0  0  0  0  0  0  0  0  0  0
   -5.6441    0.9973   -2.8567 H   0  0  0  0  0  0  0  0  0  0  0  0
   -5.2202    2.5699   -2.4121 H   0  0  0  0  0  0  0  0  0  0  0  0
   -3.0944    2.1702   -3.2794 H   0  0  0  0  0  0  0  0  0  0  0  0
   -2.5876   -0.1803   -6.3065 H   0  0  0  0  0  0  0  0  0  0  0  0
    1.9795    3.6341   -8.2655 H   0  0  0  0  0  0  0  0  0  0  0  0
    1.6631    4.9416   -7.1181 H   0  0  0  0  0  0  0  0  0  0  0  0
    3.7874    3.0701   -7.2023 H   0  0  0  0  0  0  0  0  0  0  0  0
    4.9264    4.4910   -6.0347 H   0  0  0  0  0  0  0  0  0  0  0  0
    3.9001    5.4253   -7.2640 H   0  0  0  0  0  0  0  0  0  0  0  0
    3.7684    7.7905   -4.9771 H   0  0  0  0  0  0  0  0  0  0  0  0
    2.0486    6.5397   -1.8844 H   0  0  0  0  0  0  0  0  0  0  0  0
    1.0990    5.2455   -4.8166 H   0  0  0  0  0  0  0  0  0  0  0  0
    3.1294    2.7087   -3.5707 H   0  0  0  0  0  0  0  0  0  0  0  0
    1.9668    2.8792   -2.2782 H   0  0  0  0  0  0  0  0  0  0  0  0
    3.6975    2.2737   -1.6279 H   0  0  0  0  0  0  0  0  0  0  0  0
    6.0195    4.0309    0.9447 H   0  0  0  0  0  0  0  0  0  0  0  0
    6.2019   -0.7592    0.3609 H   0  0  0  0  0  0  0  0  0  0  0  0
    7.5243   -0.7977   -1.6395 H   0  0  0  0  0  0  0  0  0  0  0  0
    7.0183    0.6151   -3.5390 H   0  0  0  0  0  0  0  0  0  0  0  0
    5.4982    2.4734   -3.2732 H   0  0  0  0  0  0  0  0  0  0  0  0
    5.8223    7.7536   -2.6581 H   0  0  0  0  0  0  0  0  0  0  0  0
    5.7116    6.2047   -1.8764 H   0  0  0  0  0  0  0  0  0  0  0  0
    3.7520    8.3265   -1.2625 H   0  0  0  0  0  0  0  0  0  0  0  0
    5.3113    6.3855    0.2281 H   0  0  0  0  0  0  0  0  0  0  0  0
    5.0812    7.9761    0.9739 H   0  0  0  0  0  0  0  0  0  0  0  0
   -0.7833    5.7772   -0.7714 H   0  0  0  0  0  0  0  0  0  0  0  0
    1.2757    2.7862    0.4460 H   0  0  0  0  0  0  0  0  0  0  0  0
   -0.4207    0.7383    0.7545 H   0  0  0  0  0  0  0  0  0  0  0  0
    1.2703    0.9414    0.7841 H   0  0  0  0  0  0  0  0  0  0  0  0
   -0.8158    2.5184    2.2980 H   0  0  0  0  0  0  0  0  0  0  0  0
    0.7894    2.2127    4.2095 H   0  0  0  0  0  0  0  0  0  0  0  0
    1.8207    4.2842    4.8656 H   0  0  0  0  0  0  0  0  0  0  0  0
    1.7636    6.1965    3.3295 H   0  0  0  0  0  0  0  0  0  0  0  0
   -1.4411    4.3486   -6.9917 H   0  0  0  0  0  0  0  0  0  0  0  0
   -2.6362    6.1455   -5.9476 H   0  0  0  0  0  0  0  0  0  0  0  0
   -4.5178    5.5278   -4.5589 H   0  0  0  0  0  0  0  0  0  0  0  0
   -5.0396    3.1793   -4.7172 H   0  0  0  0  0  0  0  0  0  0  0  0
   -4.8423    3.4317    1.7639 H   0  0  0  0  0  0  0  0  0  0  0  0
   -5.8342    1.9965    2.0038 H   0  0  0  0  0  0  0  0  0  0  0  0
   -4.2188    1.3366    3.3499 H   0  0  0  0  0  0  0  0  0  0  0  0
   -1.5958    3.0021    5.3791 H   0  0  0  0  0  0  0  0  0  0  0  0
   -1.7601   -2.1203    9.2285 H   0  0  0  0  0  0  0  0  0  0  0  0
   -0.2305   -1.7770    8.4058 H   0  0  0  0  0  0  0  0  0  0  0  0
   -2.0643   -3.9683    8.1300 H   0  0  0  0  0  0  0  0  0  0  0  0
    0.6579   -3.7026    8.6760 H   0  0  0  0  0  0  0  0  0  0  0  0
   -0.2274   -5.1130    8.3403 H   0  0  0  0  0  0  0  0  0  0  0  0
   -3.3524   -1.7339    5.1403 H   0  0  0  0  0  0  0  0  0  0  0  0
   -5.6204   -2.0226    4.3869 H   0  0  0  0  0  0  0  0  0  0  0  0
   -7.2079   -0.2204    4.4105 H   0  0  0  0  0  0  0  0  0  0  0  0
   -6.3137    2.0531    4.3708 H   0  0  0  0  0  0  0  0  0  0  0  0
    1.1969   -6.3375    0.4041 H   0  0  0  0  0  0  0  0  0  0  0  0
    2.2110   -7.7697   -1.2442 H   0  0  0  0  0  0  0  0  0  0  0  0
    3.3120   -6.7996   -3.1996 H   0  0  0  0  0  0  0  0  0  0  0  0
    4.2898   -4.5938   -3.0474 H   0  0  0  0  0  0  0  0  0  0  0  0
   -3.4486   -3.6810   -4.3763 H   0  0  0  0  0  0  0  0  0  0  0  0
   -5.6157   -3.9287   -3.2559 H   0  0  0  0  0  0  0  0  0  0  0  0
   -5.7731   -6.1935   -2.4440 H   0  0  0  0  0  0  0  0  0  0  0  0
   -3.9119   -7.3360   -1.4448 H   0  0  0  0  0  0  0  0  0  0  0  0
  1  2  2  0
  2  3  1  0
  3  4  1  0
  4  5  1  0
  5  6  1  0
  6  7  1  0
  7  8  1  0
  8  9  2  0
  9 10  1  0
 10 11  2  0
 11 12  1  0
 11 13  1  0
 13 14  1  0
 14 15  1  0
 15 16  1  0
 16 17  1  0
 17 18  2  0
 17 19  1  0
 19 20  2  0
 20 21  1  0
 21 22  1  0
 22 23  1  0
 23 24  1  0
 24 25  1  0
 25 26  2  0
 26 27  1  0
 27 28  2  0
 28 29  1  0
 28 30  1  0
 30 31  1  0
 31 32  1  0
 32 33  1  0
 33 34  2  0
 34 35  1  0
 35 36  2  0
 35 37  1  0
 37 38  1  0
 38 39  1  0
 39 40  1  0
 40 41  1  0
 41 42  1  0
 42 43  2  0
 43 44  1  0
 44 45  2  0
 45 46  1  0
 45 47  1  0
 47 48  1  0
 48 49  1  0
 49 50  1  0
 50 51  2  0
 51 52  1  0
 52 53  2  0
 52 54  1  0
 54 55  1  0
 55 56  1  0
 56 57  1  0
 57 58  1  0
 58 59  1  0
 59 60  2  0
 60 61  1  0
 61 62  2  0
 62 63  1  0
 62 64  1  0
 64 65  1  0
 65 66  1  0
 66 67  1  0
 67 68  2  0
 68 69  1  0
 69 70  2  0
 70 71  1  0
 71 72  2  0
 72 73  1  0
 73 74  2  0
 60 75  1  0
 75 76  1  0
 76 77  1  0
 77 78  1  0
 78 79  1  0
 79 80  2  0
 79 81  1  0
 81 82  2  0
 82 83  1  0
 83 84  1  0
 84 85  1  0
 83 86  1  0
 86 87  2  0
 87 88  1  0
 88 89  2  0
 89 90  1  0
 90 91  2  0
 51 92  1  0
 92 93  2  0
 93 94  1  0
 94 95  2  0
 95 96  1  0
 96 97  2  0
 43 98  1  0
 98 99  1  0
 99100  1  0
100101  1  0
101102  2  0
102103  1  0
103104  2  0
103105  1  0
105106  1  0
106107  1  0
107108  1  0
102109  1  0
109110  2  0
110111  1  0
111112  2  0
112113  1  0
113114  2  0
 34115  1  0
115116  2  0
116117  1  0
117118  2  0
118119  1  0
119120  2  0
 21121  1  0
121122  2  0
122123  1  0
123124  2  0
124125  1  0
125126  2  0
 68  2  1  0
 74 69  1  0
 91 81  1  0
 97 92  1  0
114100  1  0
120115  1  0
126121  1  0
 12  7  2  0
126 19  1  0
108  9  1  0
114109  1  0
 29 24  2  0
120 32  1  0
 85 26  1  0
 91 86  1  0
 46 41  2  0
 97 49  1  0
 63 58  2  0
 74 66  1  0
  4127  1  0
  4128  1  0
  5129  1  0
  6130  1  0
  6131  1  0
  8132  1  0
 10133  1  0
 12134  1  0
 13135  1  0
 13136  1  0
 14137  1  0
 15138  1  0
 15139  1  0
 20140  1  0
 22141  1  0
 23142  1  0
 23143  1  0
 25144  1  0
 27145  1  0
 29146  1  0
 30147  1  0
 30148  1  0
 31149  1  0
 33150  1  0
 38151  1  0
 38152  1  0
 39153  1  0
 40154  1  0
 40155  1  0
 42156  1  0
 44157  1  0
 46158  1  0
 47159  1  0
 47160  1  0
 48161  1  0
 50162  1  0
 55163  1  0
 55164  1  0
 56165  1  0
 57166  1  0
 57167  1  0
 59168  1  0
 61169  1  0
 63170  1  0
 64171  1  0
 64172  1  0
 65173  1  0
 67174  1  0
 70175  1  0
 71176  1  0
 72177  1  0
 73178  1  0
 75179  1  0
 75180  1  0
 76181  1  0
 77182  1  0
 77183  1  0
 82184  1  0
 84185  1  0
 85186  1  0
 85187  1  0
 87188  1  0
 88189  1  0
 89190  1  0
 90191  1  0
 93192  1  0
 94193  1  0
 95194  1  0
 96195  1  0
 98196  1  0
 98197  1  0
 99198  1  0
101199  1  0
106200  1  0
106201  1  0
107202  1  0
108203  1  0
108204  1  0
110205  1  0
111206  1  0
112207  1  0
113208  1  0
116209  1  0
117210  1  0
118211  1  0
119212  1  0
122213  1  0
123214  1  0
124215  1  0
125216  1  0
M  END
