
     RDKit          3D

192204  0  0  0  0  0  0  0  0999 V2000
    2.3433    3.6882    3.0432 C   0  0  0  0  0  0  0  0  0  0  0  0
    3.3852    4.4814    2.6136 C   0  0  0  0  0  0  0  0  0  0  0  0
    4.6626    3.9663    2.7906 C   0  0  0  0  0  0  0  0  0  0  0  0
    4.8501    2.7497    3.3536 N   0  0  0  0  0  0  0  0  0  0  0  0
    3.8332    1.9106    3.0389 C   0  0  0  0  0  0  0  0  0  0  0  0
    2.5524    2.3522    2.9948 N   0  0  0  0  0  0  0  0  0  0  0  0
    2.9852    0.9118    2.6263 O   0  0  0  0  0  0  0  0  0  0  0  0
    2.3537   -0.3399    2.6278 C   0  0  0  0  0  0  0  0  0  0  0  0
    1.4352   -0.3870    1.5353 N   0  0  0  0  0  0  0  0  0  0  0  0
    2.1336   -0.4820    0.2791 C   0  0  0  0  0  0  0  0  0  0  0  0
    1.3430   -1.2179   -0.7996 C   0  0  0  0  0  0  0  0  0  0  0  0
    1.5306   -2.5128   -1.4102 C   0  0  0  0  0  0  0  0  0  0  0  0
    2.3942   -2.5438   -2.5472 C   0  0  0  0  0  0  0  0  0  0  0  0
    2.6300   -1.1508   -2.8063 C   0  0  0  0  0  0  0  0  0  0  0  0
    1.3640   -0.5526   -3.1384 C   0  0  0  0  0  0  0  0  0  0  0  0
    0.6144   -0.7149   -1.9354 C   0  0  0  0  0  0  0  0  0  0  0  0
    0.8027   -0.2657   -4.4975 C   0  0  0  0  0  0  0  0  0  0  0  0
   -0.2602   -1.0603   -5.0229 N   0  0  0  0  0  0  0  0  0  0  0  0
   -1.4269   -0.3586   -5.4279 C   0  0  0  0  0  0  0  0  0  0  0  0
   -2.5633   -0.8359   -4.7550 O   0  0  0  0  0  0  0  0  0  0  0  0
   -3.5985   -1.6581   -4.3422 C   0  0  0  0  0  0  0  0  0  0  0  0
   -4.0417   -0.3913   -4.6138 C   0  0  0  0  0  0  0  0  0  0  0  0
   -5.2164    0.0098   -4.0136 C   0  0  0  0  0  0  0  0  0  0  0  0
   -5.6712   -0.7536   -2.9977 N   0  0  0  0  0  0  0  0  0  0  0  0
   -5.1230   -1.9554   -2.6926 C   0  0  0  0  0  0  0  0  0  0  0  0
   -4.3252   -2.5334   -3.6056 N   0  0  0  0  0  0  0  0  0  0  0  0
   -5.6870   -1.4116   -1.5619 O   0  0  0  0  0  0  0  0  0  0  0  0
   -6.5476   -1.1319   -0.4933 C   0  0  0  0  0  0  0  0  0  0  0  0
   -6.2360    0.1842   -0.0091 N   0  0  0  0  0  0  0  0  0  0  0  0
   -6.4303    0.1568    1.4438 C   0  0  0  0  0  0  0  0  0  0  0  0
   -6.8856    1.4443    2.0230 C   0  0  0  0  0  0  0  0  0  0  0  0
   -8.2290    1.8643    2.2710 C   0  0  0  0  0  0  0  0  0  0  0  0
   -8.3901    3.0639    3.0479 C   0  0  0  0  0  0  0  0  0  0  0  0
   -7.8434    2.4616    4.2394 C   0  0  0  0  0  0  0  0  0  0  0  0
   -6.4515    2.1458    4.1903 C   0  0  0  0  0  0  0  0  0  0  0  0
   -6.1213    2.3763    2.8081 C   0  0  0  0  0  0  0  0  0  0  0  0
   -5.6779    1.3705    5.1836 C   0  0  0  0  0  0  0  0  0  0  0  0
   -5.0238    2.1788    6.2208 N   0  0  0  0  0  0  0  0  0  0  0  0
   -4.3595    3.2875    5.6009 C   0  0  0  0  0  0  0  0  0  0  0  0
   -3.2417    2.8987    4.8117 O   0  0  0  0  0  0  0  0  0  0  0  0
   -2.3844    2.4287    3.8104 C   0  0  0  0  0  0  0  0  0  0  0  0
   -1.9493    2.0143    5.0249 N   0  0  0  0  0  0  0  0  0  0  0  0
   -1.3639    0.7916    5.0321 C   0  0  0  0  0  0  0  0  0  0  0  0
   -1.5821   -0.0861    3.9769 C   0  0  0  0  0  0  0  0  0  0  0  0
   -2.0345    0.4147    2.7616 C   0  0  0  0  0  0  0  0  0  0  0  0
   -2.0393    1.7680    2.6776 N   0  0  0  0  0  0  0  0  0  0  0  0
   -2.1249   -0.9577    2.8579 O   0  0  0  0  0  0  0  0  0  0  0  0
   -2.5248   -2.2942    2.6757 C   0  0  0  0  0  0  0  0  0  0  0  0
   -2.5195   -2.6758    1.2650 N   0  0  0  0  0  0  0  0  0  0  0  0
   -1.4523   -3.6463    0.9916 C   0  0  0  0  0  0  0  0  0  0  0  0
   -1.7372   -4.9765    1.6125 C   0  0  0  0  0  0  0  0  0  0  0  0
   -1.1433   -5.5965    2.7509 C   0  0  0  0  0  0  0  0  0  0  0  0
   -0.0077   -6.4175    2.5013 C   0  0  0  0  0  0  0  0  0  0  0  0
   -0.6817   -7.4314    1.7590 C   0  0  0  0  0  0  0  0  0  0  0  0
   -1.2198   -7.0523    0.4978 C   0  0  0  0  0  0  0  0  0  0  0  0
   -2.2178   -6.1695    1.0021 C   0  0  0  0  0  0  0  0  0  0  0  0
   -0.5746   -7.1122   -0.8504 C   0  0  0  0  0  0  0  0  0  0  0  0
    0.8408   -7.0387   -0.9680 N   0  0  0  0  0  0  0  0  0  0  0  0
    1.5468   -8.2660   -0.7897 C   0  0  0  0  0  0  0  0  0  0  0  0
    2.6342   -8.2685   -1.7127 O   0  0  0  0  0  0  0  0  0  0  0  0
    3.7255   -8.0940   -2.5699 C   0  0  0  0  0  0  0  0  0  0  0  0
    2.6080   -8.3538   -3.2901 N   0  0  0  0  0  0  0  0  0  0  0  0
    2.5282   -7.9802   -4.5906 C   0  0  0  0  0  0  0  0  0  0  0  0
    3.3479   -6.9501   -5.0247 C   0  0  0  0  0  0  0  0  0  0  0  0
    4.3912   -6.6010   -4.2039 C   0  0  0  0  0  0  0  0  0  0  0  0
    4.7361   -7.4933   -3.2441 N   0  0  0  0  0  0  0  0  0  0  0  0
    3.9674   -5.4841   -4.8903 O   0  0  0  0  0  0  0  0  0  0  0  0
    3.7777   -4.2452   -5.5272 C   0  0  0  0  0  0  0  0  0  0  0  0
    2.8477   -3.3820   -4.8768 N   0  0  0  0  0  0  0  0  0  0  0  0
    2.6781   -3.6701   -3.4512 C   0  0  0  0  0  0  0  0  0  0  0  0
    1.4313   -6.0640    2.5185 C   0  0  0  0  0  0  0  0  0  0  0  0
    1.8282   -4.6978    2.2827 N   0  0  0  0  0  0  0  0  0  0  0  0
    3.2208   -4.6019    2.6197 C   0  0  0  0  0  0  0  0  0  0  0  0
    4.0165   -4.0469    1.6035 O   0  0  0  0  0  0  0  0  0  0  0  0
    4.8849   -3.6942    0.5947 C   0  0  0  0  0  0  0  0  0  0  0  0
    5.4395   -3.3845    1.7915 N   0  0  0  0  0  0  0  0  0  0  0  0
    6.4257   -2.4576    1.8732 C   0  0  0  0  0  0  0  0  0  0  0  0
    6.4489   -1.5172    0.8589 C   0  0  0  0  0  0  0  0  0  0  0  0
    5.9641   -1.9131   -0.3587 C   0  0  0  0  0  0  0  0  0  0  0  0
    5.5202   -3.1849   -0.4863 N   0  0  0  0  0  0  0  0  0  0  0  0
    5.9385   -0.5168   -0.2790 O   0  0  0  0  0  0  0  0  0  0  0  0
    6.2184    0.8801   -0.3400 C   0  0  0  0  0  0  0  0  0  0  0  0
    5.4333    1.4091   -1.4070 N   0  0  0  0  0  0  0  0  0  0  0  0
    4.8357    2.6509   -0.9092 C   0  0  0  0  0  0  0  0  0  0  0  0
    4.5237    3.6082   -2.0178 C   0  0  0  0  0  0  0  0  0  0  0  0
    5.2338    4.7679   -2.4381 C   0  0  0  0  0  0  0  0  0  0  0  0
    4.8583    5.9819   -1.7889 C   0  0  0  0  0  0  0  0  0  0  0  0
    3.5567    6.0809   -2.3553 C   0  0  0  0  0  0  0  0  0  0  0  0
    2.6067    5.0844   -1.9800 C   0  0  0  0  0  0  0  0  0  0  0  0
    3.2654    3.9734   -2.5818 C   0  0  0  0  0  0  0  0  0  0  0  0
    1.6072    5.0939   -0.8780 C   0  0  0  0  0  0  0  0  0  0  0  0
    0.2431    5.3501   -1.3491 N   0  0  0  0  0  0  0  0  0  0  0  0
   -0.6647    4.2830   -1.0344 C   0  0  0  0  0  0  0  0  0  0  0  0
   -1.9738    4.7602   -1.3391 O   0  0  0  0  0  0  0  0  0  0  0  0
   -3.1715    5.4108   -1.6565 C   0  0  0  0  0  0  0  0  0  0  0  0
   -3.3841    4.1002   -1.2512 C   0  0  0  0  0  0  0  0  0  0  0  0
   -4.6814    3.6853   -1.0000 C   0  0  0  0  0  0  0  0  0  0  0  0
   -5.5645    4.6547   -0.6583 N   0  0  0  0  0  0  0  0  0  0  0  0
   -5.2214    5.9579   -0.8005 C   0  0  0  0  0  0  0  0  0  0  0  0
   -4.1898    6.2990   -1.6086 N   0  0  0  0  0  0  0  0  0  0  0  0
   -5.9911    5.7957    0.3373 O   0  0  0  0  0  0  0  0  0  0  0  0
   -6.8748    5.9381    1.4347 C   0  0  0  0  0  0  0  0  0  0  0  0
   -7.8256    4.8778    1.3825 N   0  0  0  0  0  0  0  0  0  0  0  0
   -8.4759    4.5220    2.5946 C   0  0  0  0  0  0  0  0  0  0  0  0
    5.3758    6.6014   -0.5236 C   0  0  0  0  0  0  0  0  0  0  0  0
    4.4774    6.8392    0.5579 N   0  0  0  0  0  0  0  0  0  0  0  0
    4.9354    6.5189    1.8652 C   0  0  0  0  0  0  0  0  0  0  0  0
    4.6710    5.1620    2.1131 O   0  0  0  0  0  0  0  0  0  0  0  0
    1.3686    4.1329    3.1682 H   0  0  0  0  0  0  0  0  0  0  0  0
    3.2727    5.5445    2.5483 H   0  0  0  0  0  0  0  0  0  0  0  0
    1.7858   -0.5572    3.5562 H   0  0  0  0  0  0  0  0  0  0  0  0
    3.0608   -1.1957    2.5061 H   0  0  0  0  0  0  0  0  0  0  0  0
    0.7077   -1.1057    1.6773 H   0  0  0  0  0  0  0  0  0  0  0  0
    2.4484    0.5420    0.0455 H   0  0  0  0  0  0  0  0  0  0  0  0
    3.1245   -0.8878    0.5180 H   0  0  0  0  0  0  0  0  0  0  0  0
    1.2182   -3.3922   -0.8073 H   0  0  0  0  0  0  0  0  0  0  0  0
    3.5914   -0.6217   -2.7443 H   0  0  0  0  0  0  0  0  0  0  0  0
   -0.3790   -0.2602   -1.7322 H   0  0  0  0  0  0  0  0  0  0  0  0
    1.5010   -0.4617   -5.3585 H   0  0  0  0  0  0  0  0  0  0  0  0
    0.7025    0.8346   -4.7257 H   0  0  0  0  0  0  0  0  0  0  0  0
   -0.0408   -1.9332   -5.4867 H   0  0  0  0  0  0  0  0  0  0  0  0
   -1.3078    0.7135   -5.1490 H   0  0  0  0  0  0  0  0  0  0  0  0
   -1.5121   -0.4354   -6.5405 H   0  0  0  0  0  0  0  0  0  0  0  0
   -3.3793    0.2915   -5.1349 H   0  0  0  0  0  0  0  0  0  0  0  0
   -5.5423    1.0141   -4.2073 H   0  0  0  0  0  0  0  0  0  0  0  0
   -6.4638   -1.8944    0.2993 H   0  0  0  0  0  0  0  0  0  0  0  0
   -7.6273   -1.1160   -0.7851 H   0  0  0  0  0  0  0  0  0  0  0  0
   -5.3130    0.5456   -0.2880 H   0  0  0  0  0  0  0  0  0  0  0  0
   -6.8905   -0.8064    1.7825 H   0  0  0  0  0  0  0  0  0  0  0  0
   -5.4024   -0.1985    1.7302 H   0  0  0  0  0  0  0  0  0  0  0  0
   -9.1242    1.4810    1.7361 H   0  0  0  0  0  0  0  0  0  0  0  0
   -8.4619    2.5203    5.1605 H   0  0  0  0  0  0  0  0  0  0  0  0
   -5.4103    3.1208    2.4264 H   0  0  0  0  0  0  0  0  0  0  0  0
   -6.0849    0.4168    5.6049 H   0  0  0  0  0  0  0  0  0  0  0  0
   -4.7472    0.8501    4.8250 H   0  0  0  0  0  0  0  0  0  0  0  0
   -5.7080    2.5556    6.8981 H   0  0  0  0  0  0  0  0  0  0  0  0
   -5.0987    3.8742    5.0367 H   0  0  0  0  0  0  0  0  0  0  0  0
   -3.9551    3.9588    6.3923 H   0  0  0  0  0  0  0  0  0  0  0  0
   -0.7671    0.4634    5.8850 H   0  0  0  0  0  0  0  0  0  0  0  0
   -1.3775   -1.1370    4.0489 H   0  0  0  0  0  0  0  0  0  0  0  0
   -1.7768   -2.9420    3.1848 H   0  0  0  0  0  0  0  0  0  0  0  0
   -3.5589   -2.4960    3.0318 H   0  0  0  0  0  0  0  0  0  0  0  0
   -2.2149   -1.8491    0.7408 H   0  0  0  0  0  0  0  0  0  0  0  0
   -1.3077   -3.5947   -0.1051 H   0  0  0  0  0  0  0  0  0  0  0  0
   -0.5433   -3.1063    1.2833 H   0  0  0  0  0  0  0  0  0  0  0  0
   -1.4808   -5.3594    3.7819 H   0  0  0  0  0  0  0  0  0  0  0  0
   -0.7054   -8.4865    2.1070 H   0  0  0  0  0  0  0  0  0  0  0  0
   -3.2987   -6.3415    0.8151 H   0  0  0  0  0  0  0  0  0  0  0  0
   -0.8119   -6.3012   -1.5726 H   0  0  0  0  0  0  0  0  0  0  0  0
   -0.8880   -8.0155   -1.4389 H   0  0  0  0  0  0  0  0  0  0  0  0
    1.2941   -6.1926   -0.6072 H   0  0  0  0  0  0  0  0  0  0  0  0
    0.8509   -9.0934   -1.0805 H   0  0  0  0  0  0  0  0  0  0  0  0
    1.9519   -8.3977    0.2337 H   0  0  0  0  0  0  0  0  0  0  0  0
    1.7462   -8.3385   -5.2379 H   0  0  0  0  0  0  0  0  0  0  0  0
    2.9884   -6.2156   -5.7419 H   0  0  0  0  0  0  0  0  0  0  0  0
    3.4344   -4.4103   -6.5799 H   0  0  0  0  0  0  0  0  0  0  0  0
    4.7400   -3.6822   -5.6302 H   0  0  0  0  0  0  0  0  0  0  0  0
    1.9720   -3.1972   -5.3751 H   0  0  0  0  0  0  0  0  0  0  0  0
    3.6344   -4.2238   -3.2317 H   0  0  0  0  0  0  0  0  0  0  0  0
    1.9610   -4.4701   -3.6519 H   0  0  0  0  0  0  0  0  0  0  0  0
    2.1023   -6.5105    1.7559 H   0  0  0  0  0  0  0  0  0  0  0  0
    1.9539   -6.3529    3.4689 H   0  0  0  0  0  0  0  0  0  0  0  0
    1.7191   -4.4232    1.2925 H   0  0  0  0  0  0  0  0  0  0  0  0
    3.6544   -5.5663    2.9841 H   0  0  0  0  0  0  0  0  0  0  0  0
    3.2940   -3.9069    3.4942 H   0  0  0  0  0  0  0  0  0  0  0  0
    6.7567   -2.1340    2.8475 H   0  0  0  0  0  0  0  0  0  0  0  0
    6.7993   -0.5116    0.9701 H   0  0  0  0  0  0  0  0  0  0  0  0
    7.2939    1.0959   -0.3951 H   0  0  0  0  0  0  0  0  0  0  0  0
    5.8750    1.2796    0.6482 H   0  0  0  0  0  0  0  0  0  0  0  0
    6.0974    1.7179   -2.1656 H   0  0  0  0  0  0  0  0  0  0  0  0
    4.0198    2.2999   -0.2681 H   0  0  0  0  0  0  0  0  0  0  0  0
    5.4992    3.0157   -0.0843 H   0  0  0  0  0  0  0  0  0  0  0  0
    6.1097    4.7146   -3.1165 H   0  0  0  0  0  0  0  0  0  0  0  0
    3.2645    6.9433   -2.9920 H   0  0  0  0  0  0  0  0  0  0  0  0
    2.7763    3.3529   -3.3613 H   0  0  0  0  0  0  0  0  0  0  0  0
    1.5070    4.2148   -0.2263 H   0  0  0  0  0  0  0  0  0  0  0  0
    1.7106    5.8482   -0.0685 H   0  0  0  0  0  0  0  0  0  0  0  0
    0.2236    5.5953   -2.3537 H   0  0  0  0  0  0  0  0  0  0  0  0
   -0.5830    4.0233    0.0329 H   0  0  0  0  0  0  0  0  0  0  0  0
   -0.5242    3.3826   -1.6845 H   0  0  0  0  0  0  0  0  0  0  0  0
   -2.5817    3.3868   -1.1252 H   0  0  0  0  0  0  0  0  0  0  0  0
   -4.9987    2.6915   -1.3112 H   0  0  0  0  0  0  0  0  0  0  0  0
   -7.3146    6.9494    1.5063 H   0  0  0  0  0  0  0  0  0  0  0  0
   -6.2430    5.7924    2.3472 H   0  0  0  0  0  0  0  0  0  0  0  0
   -8.4762    5.0609    0.5842 H   0  0  0  0  0  0  0  0  0  0  0  0
   -8.0387    5.2574    3.2719 H   0  0  0  0  0  0  0  0  0  0  0  0
   -9.5370    4.8767    2.5202 H   0  0  0  0  0  0  0  0  0  0  0  0
    5.8946    7.5813   -0.7098 H   0  0  0  0  0  0  0  0  0  0  0  0
    6.1745    6.0649    0.0142 H   0  0  0  0  0  0  0  0  0  0  0  0
    3.9867    7.7685    0.5161 H   0  0  0  0  0  0  0  0  0  0  0  0
    4.4495    7.2072    2.5881 H   0  0  0  0  0  0  0  0  0  0  0  0
    6.0255    6.7702    1.9085 H   0  0  0  0  0  0  0  0  0  0  0  0
  1  2  2  0
  2  3  1  0
  3  4  2  0
  4  5  1  0
  5  6  2  0
  5  7  1  0
  7  8  1  0
  8  9  1  0
  9 10  1  0
 10 11  1  0
 11 12  2  0
 12 13  1  0
 13 14  2  0
 14 15  1  0
 15 16  2  0
 15 17  1  0
 17 18  1  0
 18 19  1  0
 19 20  1  0
 20 21  1  0
 21 22  2  0
 22 23  1  0
 23 24  2  0
 24 25  1  0
 25 26  2  0
 25 27  1  0
 27 28  1  0
 28 29  1  0
 29 30  1  0
 30 31  1  0
 31 32  2  0
 32 33  1  0
 33 34  2  0
 34 35  1  0
 35 36  2  0
 35 37  1  0
 37 38  1  0
 38 39  1  0
 39 40  1  0
 40 41  1  0
 41 42  2  0
 42 43  1  0
 43 44  2  0
 44 45  1  0
 45 46  2  0
 45 47  1  0
 47 48  1  0
 48 49  1  0
 49 50  1  0
 50 51  1  0
 51 52  1  0
 52 53  2  0
 53 54  1  0
 54 55  2  0
 55 56  1  0
 55 57  1  0
 57 58  1  0
 58 59  1  0
 59 60  1  0
 60 61  1  0
 61 62  1  0
 62 63  2  0
 63 64  1  0
 64 65  2  0
 65 66  1  0
 65 67  1  0
 67 68  1  0
 68 69  1  0
 69 70  1  0
 53 71  1  0
 71 72  1  0
 72 73  1  0
 73 74  1  0
 74 75  1  0
 75 76  2  0
 76 77  1  0
 77 78  2  0
 78 79  1  0
 79 80  2  0
 79 81  1  0
 81 82  1  0
 82 83  1  0
 83 84  1  0
 84 85  1  0
 85 86  2  0
 86 87  1  0
 87 88  2  0
 88 89  1  0
 89 90  2  0
 89 91  1  0
 91 92  1  0
 92 93  1  0
 93 94  1  0
 94 95  1  0
 95 96  1  0
 96 97  2  0
 97 98  1  0
 98 99  2  0
 99100  1  0
 99101  1  0
101102  1  0
102103  1  0
103104  1  0
 87105  1  0
105106  1  0
106107  1  0
107108  1  0
  6  1  1  0
 16 11  1  0
 26 21  1  0
 36 31  1  0
 46 41  1  0
 56 51  2  0
 66 61  2  0
 80 75  1  0
 90 85  1  0
100 95  2  0
108  3  1  0
 70 13  1  0
104 33  1  0
  1109  1  0
  2110  1  0
  8111  1  0
  8112  1  0
  9113  1  0
 10114  1  0
 10115  1  0
 12116  1  0
 14117  1  0
 16118  1  0
 17119  1  0
 17120  1  0
 18121  1  0
 19122  1  0
 19123  1  0
 22124  1  0
 23125  1  0
 28126  1  0
 28127  1  0
 29128  1  0
 30129  1  0
 30130  1  0
 32131  1  0
 34132  1  0
 36133  1  0
 37134  1  0
 37135  1  0
 38136  1  0
 39137  1  0
 39138  1  0
 43139  1  0
 44140  1  0
 48141  1  0
 48142  1  0
 49143  1  0
 50144  1  0
 50145  1  0
 52146  1  0
 54147  1  0
 56148  1  0
 57149  1  0
 57150  1  0
 58151  1  0
 59152  1  0
 59153  1  0
 63154  1  0
 64155  1  0
 68156  1  0
 68157  1  0
 69158  1  0
 70159  1  0
 70160  1  0
 71161  1  0
 71162  1  0
 72163  1  0
 73164  1  0
 73165  1  0
 77166  1  0
 78167  1  0
 82168  1  0
 82169  1  0
 83170  1  0
 84171  1  0
 84172  1  0
 86173  1  0
 88174  1  0
 90175  1  0
 91176  1  0
 91177  1  0
 92178  1  0
 93179  1  0
 93180  1  0
 96181  1  0
 97182  1  0
102183  1  0
102184  1  0
103185  1  0
104186  1  0
104187  1  0
105188  1  0
105189  1  0
106190  1  0
107191  1  0
107192  1  0
M  END
