
     RDKit          3D

192204  0  0  0  0  0  0  0  0999 V2000
   -4.7323    0.0838   -2.7699 C   0  0  0  0  0  0  0  0  0  0  0  0
   -4.2176   -0.8601   -3.7033 C   0  0  0  0  0  0  0  0  0  0  0  0
   -5.0959   -0.5276   -4.7737 C   0  0  0  0  0  0  0  0  0  0  0  0
   -4.8907    0.7363   -5.3862 C   0  0  0  0  0  0  0  0  0  0  0  0
   -5.3652    1.4853   -4.2755 C   0  0  0  0  0  0  0  0  0  0  0  0
   -4.5695    1.4660   -3.0900 C   0  0  0  0  0  0  0  0  0  0  0  0
   -3.4683    2.3629   -2.7034 C   0  0  0  0  0  0  0  0  0  0  0  0
   -3.8243    3.2821   -1.6132 N   0  0  0  0  0  0  0  0  0  0  0  0
   -2.8659    3.4390   -0.7473 O   0  0  0  0  0  0  0  0  0  0  0  0
   -3.1593    3.8177    0.5224 C   0  0  0  0  0  0  0  0  0  0  0  0
   -2.1650    4.3883    1.2661 O   0  0  0  0  0  0  0  0  0  0  0  0
   -1.0560    3.7730    1.4796 N   0  0  0  0  0  0  0  0  0  0  0  0
   -0.8383    3.2822    2.8474 C   0  0  0  0  0  0  0  0  0  0  0  0
    0.5573    2.9166    3.1455 C   0  0  0  0  0  0  0  0  0  0  0  0
    1.1122    1.5937    3.2957 C   0  0  0  0  0  0  0  0  0  0  0  0
    1.1406    1.2716    4.6960 C   0  0  0  0  0  0  0  0  0  0  0  0
    1.9264    2.3165    5.2754 C   0  0  0  0  0  0  0  0  0  0  0  0
    2.7015    3.0447    4.3042 C   0  0  0  0  0  0  0  0  0  0  0  0
    1.5348    3.7163    3.8083 C   0  0  0  0  0  0  0  0  0  0  0  0
    4.0167    2.7497    3.5975 C   0  0  0  0  0  0  0  0  0  0  0  0
    4.0289    2.5077    2.2016 N   0  0  0  0  0  0  0  0  0  0  0  0
    4.3863    1.2884    1.7990 O   0  0  0  0  0  0  0  0  0  0  0  0
    5.5777    1.2068    1.1096 C   0  0  0  0  0  0  0  0  0  0  0  0
    5.5495    0.2354    0.0938 O   0  0  0  0  0  0  0  0  0  0  0  0
    5.9462    0.7530   -1.1051 N   0  0  0  0  0  0  0  0  0  0  0  0
    4.7757    1.5110   -1.5463 C   0  0  0  0  0  0  0  0  0  0  0  0
    3.5989    0.6127   -1.9027 C   0  0  0  0  0  0  0  0  0  0  0  0
    2.8443    0.4740   -3.1266 C   0  0  0  0  0  0  0  0  0  0  0  0
    1.8279    1.4608   -3.2998 C   0  0  0  0  0  0  0  0  0  0  0  0
    1.7961    2.1427   -2.0347 C   0  0  0  0  0  0  0  0  0  0  0  0
    1.4026    1.1584   -1.0605 C   0  0  0  0  0  0  0  0  0  0  0  0
    2.4756    0.2165   -1.0939 C   0  0  0  0  0  0  0  0  0  0  0  0
    0.0582    0.9426   -0.5339 C   0  0  0  0  0  0  0  0  0  0  0  0
   -0.7695   -0.1303   -0.9386 N   0  0  0  0  0  0  0  0  0  0  0  0
   -1.9850   -0.1648   -0.5218 O   0  0  0  0  0  0  0  0  0  0  0  0
   -2.2617   -0.1932    0.8041 C   0  0  0  0  0  0  0  0  0  0  0  0
   -1.2289   -0.9137    1.4253 O   0  0  0  0  0  0  0  0  0  0  0  0
   -1.8431   -1.8351    2.1728 N   0  0  0  0  0  0  0  0  0  0  0  0
   -1.1387   -3.1081    2.0740 C   0  0  0  0  0  0  0  0  0  0  0  0
    0.1779   -2.9910    1.3750 C   0  0  0  0  0  0  0  0  0  0  0  0
    0.5547   -3.4423    0.0724 C   0  0  0  0  0  0  0  0  0  0  0  0
    0.9103   -4.8174   -0.0421 C   0  0  0  0  0  0  0  0  0  0  0  0
    2.0927   -4.7871    0.7487 C   0  0  0  0  0  0  0  0  0  0  0  0
    1.9805   -4.4264    2.1198 C   0  0  0  0  0  0  0  0  0  0  0  0
    1.4855   -3.1023    1.9415 C   0  0  0  0  0  0  0  0  0  0  0  0
    1.7274   -5.3196    3.2815 C   0  0  0  0  0  0  0  0  0  0  0  0
    2.2331   -4.8337    4.5654 N   0  0  0  0  0  0  0  0  0  0  0  0
    2.2895   -3.4955    4.6254 O   0  0  0  0  0  0  0  0  0  0  0  0
    1.4534   -2.9186    5.5555 C   0  0  0  0  0  0  0  0  0  0  0  0
    1.5547   -1.5185    5.5229 O   0  0  0  0  0  0  0  0  0  0  0  0
    0.3694   -1.0529    5.1506 N   0  0  0  0  0  0  0  0  0  0  0  0
    0.1778    0.3953    5.3323 C   0  0  0  0  0  0  0  0  0  0  0  0
    1.7102   -3.3379    6.9669 C   0  0  0  0  0  0  0  0  0  0  0  0
    3.1609   -3.2788    7.3720 C   0  0  0  0  0  0  0  0  0  0  0  0
    3.0742   -3.9770    8.7255 C   0  0  0  0  0  0  0  0  0  0  0  0
    1.8184   -4.7857    8.5730 C   0  0  0  0  0  0  0  0  0  0  0  0
    1.4029   -4.6565    7.2394 O   0  0  0  0  0  0  0  0  0  0  0  0
   -0.0353   -5.9224   -0.2966 C   0  0  0  0  0  0  0  0  0  0  0  0
   -0.6341   -5.9445   -1.6373 N   0  0  0  0  0  0  0  0  0  0  0  0
   -1.2306   -4.7478   -1.9140 O   0  0  0  0  0  0  0  0  0  0  0  0
   -1.4239   -4.5011   -3.2425 C   0  0  0  0  0  0  0  0  0  0  0  0
   -2.5784   -3.7807   -3.5527 O   0  0  0  0  0  0  0  0  0  0  0  0
   -2.6770   -2.6292   -2.9216 N   0  0  0  0  0  0  0  0  0  0  0  0
   -2.8500   -1.4515   -3.7689 C   0  0  0  0  0  0  0  0  0  0  0  0
   -0.2840   -3.8198   -3.9411 C   0  0  0  0  0  0  0  0  0  0  0  0
   -0.4200   -4.1401   -5.4259 C   0  0  0  0  0  0  0  0  0  0  0  0
    0.9928   -4.2537   -5.9552 C   0  0  0  0  0  0  0  0  0  0  0  0
    1.8056   -4.0650   -4.7041 C   0  0  0  0  0  0  0  0  0  0  0  0
    0.9559   -4.3505   -3.6522 O   0  0  0  0  0  0  0  0  0  0  0  0
   -3.6045   -0.5942    1.2408 C   0  0  0  0  0  0  0  0  0  0  0  0
   -4.2423   -1.7994    0.6981 C   0  0  0  0  0  0  0  0  0  0  0  0
   -5.7244   -1.5328    0.9650 C   0  0  0  0  0  0  0  0  0  0  0  0
   -5.7509   -0.0893    1.4438 C   0  0  0  0  0  0  0  0  0  0  0  0
   -4.5542    0.3807    0.9341 O   0  0  0  0  0  0  0  0  0  0  0  0
    0.7582    1.4428   -4.3071 C   0  0  0  0  0  0  0  0  0  0  0  0
    1.0722    2.1581   -5.5534 N   0  0  0  0  0  0  0  0  0  0  0  0
    0.5323    1.4628   -6.5647 O   0  0  0  0  0  0  0  0  0  0  0  0
   -0.6461    2.1344   -6.9290 C   0  0  0  0  0  0  0  0  0  0  0  0
   -1.6493    1.1817   -6.9316 O   0  0  0  0  0  0  0  0  0  0  0  0
   -2.5490    1.3953   -5.9700 N   0  0  0  0  0  0  0  0  0  0  0  0
   -3.8876    1.1431   -6.4108 C   0  0  0  0  0  0  0  0  0  0  0  0
   -0.5024    2.8442   -8.2552 C   0  0  0  0  0  0  0  0  0  0  0  0
    0.9032    2.8030   -8.7917 C   0  0  0  0  0  0  0  0  0  0  0  0
    1.3505    4.2509   -8.8216 C   0  0  0  0  0  0  0  0  0  0  0  0
    0.2762    4.9248   -8.0103 C   0  0  0  0  0  0  0  0  0  0  0  0
   -0.8810    4.1804   -8.1923 O   0  0  0  0  0  0  0  0  0  0  0  0
    6.6227    0.6642    2.0835 C   0  0  0  0  0  0  0  0  0  0  0  0
    6.1380   -0.5711    2.7867 C   0  0  0  0  0  0  0  0  0  0  0  0
    6.9893   -1.6793    2.2448 C   0  0  0  0  0  0  0  0  0  0  0  0
    7.8894   -0.9971    1.2632 C   0  0  0  0  0  0  0  0  0  0  0  0
    7.8059    0.3606    1.4455 O   0  0  0  0  0  0  0  0  0  0  0  0
   -4.2834    4.8498    0.4356 C   0  0  0  0  0  0  0  0  0  0  0  0
   -5.6365    4.1540    0.4056 C   0  0  0  0  0  0  0  0  0  0  0  0
   -6.1973    4.4066    1.8003 C   0  0  0  0  0  0  0  0  0  0  0  0
   -4.9428    4.7662    2.5575 C   0  0  0  0  0  0  0  0  0  0  0  0
   -4.2779    5.5708    1.6276 O   0  0  0  0  0  0  0  0  0  0  0  0
   -5.2028   -0.2334   -1.8157 H   0  0  0  0  0  0  0  0  0  0  0  0
   -5.8031   -1.2792   -5.1878 H   0  0  0  0  0  0  0  0  0  0  0  0
   -6.2626    2.1380   -4.3524 H   0  0  0  0  0  0  0  0  0  0  0  0
   -2.4817    1.9393   -2.4008 H   0  0  0  0  0  0  0  0  0  0  0  0
   -3.0463    3.0756   -3.4586 H   0  0  0  0  0  0  0  0  0  0  0  0
   -4.3126    4.1253   -1.9568 H   0  0  0  0  0  0  0  0  0  0  0  0
   -3.5871    3.0168    1.1717 H   0  0  0  0  0  0  0  0  0  0  0  0
   -0.2242    4.3410    1.1740 H   0  0  0  0  0  0  0  0  0  0  0  0
   -1.4585    3.8554    3.5844 H   0  0  0  0  0  0  0  0  0  0  0  0
   -1.6028    2.4541    2.8245 H   0  0  0  0  0  0  0  0  0  0  0  0
    1.4804    0.9783    2.4586 H   0  0  0  0  0  0  0  0  0  0  0  0
    2.2422    2.3809    6.3375 H   0  0  0  0  0  0  0  0  0  0  0  0
    1.5667    4.8275    3.7722 H   0  0  0  0  0  0  0  0  0  0  0  0
    4.5569    1.8591    3.9580 H   0  0  0  0  0  0  0  0  0  0  0  0
    4.7963    3.5324    3.8022 H   0  0  0  0  0  0  0  0  0  0  0  0
    4.5484    3.2228    1.6434 H   0  0  0  0  0  0  0  0  0  0  0  0
    5.9692    2.1732    0.7605 H   0  0  0  0  0  0  0  0  0  0  0  0
    6.0678   -0.0854   -1.7322 H   0  0  0  0  0  0  0  0  0  0  0  0
    4.6248    2.2678   -0.7654 H   0  0  0  0  0  0  0  0  0  0  0  0
    5.1703    2.1553   -2.3295 H   0  0  0  0  0  0  0  0  0  0  0  0
    3.2953   -0.1581   -3.9196 H   0  0  0  0  0  0  0  0  0  0  0  0
    2.0714    3.1883   -1.8438 H   0  0  0  0  0  0  0  0  0  0  0  0
    2.6241   -0.6274   -0.3872 H   0  0  0  0  0  0  0  0  0  0  0  0
   -0.0842    1.0814    0.5723 H   0  0  0  0  0  0  0  0  0  0  0  0
   -0.7264    1.7083   -0.7976 H   0  0  0  0  0  0  0  0  0  0  0  0
   -0.4759   -0.6780   -1.7515 H   0  0  0  0  0  0  0  0  0  0  0  0
   -2.1103    0.8602    1.1592 H   0  0  0  0  0  0  0  0  0  0  0  0
   -1.8813   -1.4696    3.1428 H   0  0  0  0  0  0  0  0  0  0  0  0
   -1.9247   -3.7599    1.6149 H   0  0  0  0  0  0  0  0  0  0  0  0
   -1.1892   -3.5129    3.0915 H   0  0  0  0  0  0  0  0  0  0  0  0
    0.4815   -2.7729   -0.8092 H   0  0  0  0  0  0  0  0  0  0  0  0
    3.0825   -5.0309    0.3013 H   0  0  0  0  0  0  0  0  0  0  0  0
    2.0243   -2.2031    2.3058 H   0  0  0  0  0  0  0  0  0  0  0  0
    2.1822   -6.3164    3.2906 H   0  0  0  0  0  0  0  0  0  0  0  0
    0.6626   -5.5946    3.4931 H   0  0  0  0  0  0  0  0  0  0  0  0
    3.2178   -5.1605    4.7531 H   0  0  0  0  0  0  0  0  0  0  0  0
    0.4175   -3.2625    5.3062 H   0  0  0  0  0  0  0  0  0  0  0  0
    0.3083   -1.1899    4.1267 H   0  0  0  0  0  0  0  0  0  0  0  0
   -0.9209    0.5122    5.0959 H   0  0  0  0  0  0  0  0  0  0  0  0
    0.0036    0.3185    6.4118 H   0  0  0  0  0  0  0  0  0  0  0  0
    1.1417   -2.6926    7.6496 H   0  0  0  0  0  0  0  0  0  0  0  0
    3.5531   -2.2559    7.4567 H   0  0  0  0  0  0  0  0  0  0  0  0
    3.8094   -3.9253    6.7402 H   0  0  0  0  0  0  0  0  0  0  0  0
    3.9695   -4.5670    8.9567 H   0  0  0  0  0  0  0  0  0  0  0  0
    2.9575   -3.1546    9.4758 H   0  0  0  0  0  0  0  0  0  0  0  0
    1.9304   -5.8440    8.8775 H   0  0  0  0  0  0  0  0  0  0  0  0
    1.0192   -4.3008    9.1867 H   0  0  0  0  0  0  0  0  0  0  0  0
   -0.8549   -6.0955    0.4465 H   0  0  0  0  0  0  0  0  0  0  0  0
    0.3695   -6.9624   -0.3342 H   0  0  0  0  0  0  0  0  0  0  0  0
    0.0411   -6.2352   -2.3625 H   0  0  0  0  0  0  0  0  0  0  0  0
   -1.5578   -5.4930   -3.7458 H   0  0  0  0  0  0  0  0  0  0  0  0
   -1.8819   -2.5513   -2.2716 H   0  0  0  0  0  0  0  0  0  0  0  0
   -2.4894   -1.8468   -4.7296 H   0  0  0  0  0  0  0  0  0  0  0  0
   -1.9911   -0.7519   -3.5945 H   0  0  0  0  0  0  0  0  0  0  0  0
   -0.3353   -2.7240   -3.8606 H   0  0  0  0  0  0  0  0  0  0  0  0
   -0.9015   -3.3176   -5.9846 H   0  0  0  0  0  0  0  0  0  0  0  0
   -0.9169   -5.1044   -5.6039 H   0  0  0  0  0  0  0  0  0  0  0  0
    1.1996   -5.2600   -6.3970 H   0  0  0  0  0  0  0  0  0  0  0  0
    1.2251   -3.4908   -6.7257 H   0  0  0  0  0  0  0  0  0  0  0  0
    2.6463   -4.8026   -4.6530 H   0  0  0  0  0  0  0  0  0  0  0  0
    2.2840   -3.0690   -4.6365 H   0  0  0  0  0  0  0  0  0  0  0  0
   -3.6007   -0.6518    2.3591 H   0  0  0  0  0  0  0  0  0  0  0  0
   -4.0507   -2.7544    1.1895 H   0  0  0  0  0  0  0  0  0  0  0  0
   -4.1407   -1.8857   -0.3896 H   0  0  0  0  0  0  0  0  0  0  0  0
   -6.1266   -2.1501    1.7777 H   0  0  0  0  0  0  0  0  0  0  0  0
   -6.3328   -1.6190    0.0498 H   0  0  0  0  0  0  0  0  0  0  0  0
   -5.7004   -0.0323    2.5413 H   0  0  0  0  0  0  0  0  0  0  0  0
   -6.5933    0.4750    1.0041 H   0  0  0  0  0  0  0  0  0  0  0  0
   -0.1840    2.0246   -4.0954 H   0  0  0  0  0  0  0  0  0  0  0  0
    0.1716    0.5088   -4.5054 H   0  0  0  0  0  0  0  0  0  0  0  0
    2.1082    2.2163   -5.5848 H   0  0  0  0  0  0  0  0  0  0  0  0
   -0.9310    2.9074   -6.1855 H   0  0  0  0  0  0  0  0  0  0  0  0
   -2.4772    2.4055   -5.6947 H   0  0  0  0  0  0  0  0  0  0  0  0
   -3.7540    0.4383   -7.2707 H   0  0  0  0  0  0  0  0  0  0  0  0
   -4.1688    2.0265   -7.0393 H   0  0  0  0  0  0  0  0  0  0  0  0
   -1.1701    2.3572   -8.9898 H   0  0  0  0  0  0  0  0  0  0  0  0
    0.9152    2.4514   -9.8534 H   0  0  0  0  0  0  0  0  0  0  0  0
    1.5916    2.1899   -8.1922 H   0  0  0  0  0  0  0  0  0  0  0  0
    1.3329    4.6733   -9.8573 H   0  0  0  0  0  0  0  0  0  0  0  0
    2.3558    4.3935   -8.3750 H   0  0  0  0  0  0  0  0  0  0  0  0
    0.1563    5.9600   -8.3855 H   0  0  0  0  0  0  0  0  0  0  0  0
    0.5686    4.9922   -6.9333 H   0  0  0  0  0  0  0  0  0  0  0  0
    6.8393    1.5081    2.7817 H   0  0  0  0  0  0  0  0  0  0  0  0
    6.3263   -0.4132    3.8775 H   0  0  0  0  0  0  0  0  0  0  0  0
    5.0604   -0.6957    2.6068 H   0  0  0  0  0  0  0  0  0  0  0  0
    7.5385   -2.2014    3.0493 H   0  0  0  0  0  0  0  0  0  0  0  0
    6.2952   -2.4094    1.7562 H   0  0  0  0  0  0  0  0  0  0  0  0
    8.9399   -1.3035    1.5004 H   0  0  0  0  0  0  0  0  0  0  0  0
    7.6986   -1.3457    0.2388 H   0  0  0  0  0  0  0  0  0  0  0  0
   -4.1505    5.4913   -0.4462 H   0  0  0  0  0  0  0  0  0  0  0  0
   -5.5309    3.0542    0.3188 H   0  0  0  0  0  0  0  0  0  0  0  0
   -6.2768    4.5959   -0.3792 H   0  0  0  0  0  0  0  0  0  0  0  0
   -6.8785    5.2708    1.7882 H   0  0  0  0  0  0  0  0  0  0  0  0
   -6.6886    3.4874    2.2055 H   0  0  0  0  0  0  0  0  0  0  0  0
   -4.3498    3.8948    2.8705 H   0  0  0  0  0  0  0  0  0  0  0  0
   -5.1759    5.4045    3.4305 H   0  0  0  0  0  0  0  0  0  0  0  0
  1  2  2  0
  2  3  1  0
  3  4  2  0
  4  5  1  0
  5  6  2  0
  6  7  1  0
  7  8  1  0
  8  9  1  0
  9 10  1  0
 10 11  1  0
 11 12  1  0
 12 13  1  0
 13 14  1  0
 14 15  2  0
 15 16  1  0
 16 17  2  0
 17 18  1  0
 18 19  2  0
 18 20  1  0
 20 21  1  0
 21 22  1  0
 22 23  1  0
 23 24  1  0
 24 25  1  0
 25 26  1  0
 26 27  1  0
 27 28  2  0
 28 29  1  0
 29 30  2  0
 30 31  1  0
 31 32  2  0
 31 33  1  0
 33 34  1  0
 34 35  1  0
 35 36  1  0
 36 37  1  0
 37 38  1  0
 38 39  1  0
 39 40  1  0
 40 41  1  0
 41 42  2  0
 42 43  1  0
 43 44  2  0
 44 45  1  0
 44 46  1  0
 46 47  1  0
 47 48  1  0
 48 49  1  0
 49 50  1  0
 50 51  1  0
 51 52  1  0
 49 53  1  0
 53 54  1  0
 54 55  1  0
 55 56  1  0
 56 57  1  0
 42 58  1  0
 58 59  1  0
 59 60  1  0
 60 61  1  0
 61 62  1  0
 62 63  1  0
 63 64  1  0
 61 65  1  0
 65 66  1  0
 66 67  1  0
 67 68  1  0
 68 69  1  0
 36 70  1  0
 70 71  1  0
 71 72  1  0
 72 73  1  0
 73 74  1  0
 29 75  1  0
 75 76  1  0
 76 77  1  0
 77 78  1  0
 78 79  1  0
 79 80  1  0
 80 81  1  0
 78 82  1  0
 82 83  1  0
 83 84  1  0
 84 85  1  0
 85 86  1  0
 23 87  1  0
 87 88  1  0
 88 89  1  0
 89 90  1  0
 90 91  1  0
 10 92  1  0
 92 93  1  0
 93 94  1  0
 94 95  1  0
 95 96  1  0
  6  1  1  0
 19 14  1  0
 32 27  1  0
 45 40  2  0
 57 53  1  0
 69 65  1  0
 74 70  1  0
 86 82  1  0
 91 87  1  0
 96 92  1  0
 64  2  1  0
 81  4  1  0
 52 16  1  0
  1 97  1  0
  3 98  1  0
  5 99  1  0
  7100  1  0
  7101  1  0
  8102  1  0
 10103  1  0
 12104  1  0
 13105  1  0
 13106  1  0
 15107  1  0
 17108  1  0
 19109  1  0
 20110  1  0
 20111  1  0
 21112  1  0
 23113  1  0
 25114  1  0
 26115  1  0
 26116  1  0
 28117  1  0
 30118  1  0
 32119  1  0
 33120  1  0
 33121  1  0
 34122  1  0
 36123  1  0
 38124  1  0
 39125  1  0
 39126  1  0
 41127  1  0
 43128  1  0
 45129  1  0
 46130  1  0
 46131  1  0
 47132  1  0
 49133  1  0
 51134  1  0
 52135  1  0
 52136  1  0
 53137  1  0
 54138  1  0
 54139  1  0
 55140  1  0
 55141  1  0
 56142  1  0
 56143  1  0
 58144  1  0
 58145  1  0
 59146  1  0
 61147  1  0
 63148  1  0
 64149  1  0
 64150  1  0
 65151  1  0
 66152  1  0
 66153  1  0
 67154  1  0
 67155  1  0
 68156  1  0
 68157  1  0
 70158  1  0
 71159  1  0
 71160  1  0
 72161  1  0
 72162  1  0
 73163  1  0
 73164  1  0
 75165  1  0
 75166  1  0
 76167  1  0
 78168  1  0
 80169  1  0
 81170  1  0
 81171  1  0
 82172  1  0
 83173  1  0
 83174  1  0
 84175  1  0
 84176  1  0
 85177  1  0
 85178  1  0
 87179  1  0
 88180  1  0
 88181  1  0
 89182  1  0
 89183  1  0
 90184  1  0
 90185  1  0
 92186  1  0
 93187  1  0
 93188  1  0
 94189  1  0
 94190  1  0
 95191  1  0
 95192  1  0
M  END
