
     RDKit          3D

162174  0  0  0  0  0  0  0  0999 V2000
    0.9443   -1.8874   -5.1240 N   0  0  0  0  0  0  0  0  0  0  0  0
    0.0999   -1.2167   -4.6797 C   0  0  0  0  0  0  0  0  0  0  0  0
   -0.9836   -0.4142   -4.1572 C   0  0  0  0  0  0  0  0  0  0  0  0
   -1.5938    0.4141   -5.0931 C   0  0  0  0  0  0  0  0  0  0  0  0
   -2.1359    1.6326   -4.6863 C   0  0  0  0  0  0  0  0  0  0  0  0
   -2.6490    1.5829   -3.3909 C   0  0  0  0  0  0  0  0  0  0  0  0
   -2.8222    2.8835   -3.9907 N   0  0  0  0  0  0  0  0  0  0  0  0
   -2.9846    4.3121   -3.8706 C   0  0  0  0  0  0  0  0  0  0  0  0
   -3.3927    4.7703   -2.4602 C   0  0  0  0  0  0  0  0  0  0  0  0
   -2.8426    5.8146   -1.6637 C   0  0  0  0  0  0  0  0  0  0  0  0
   -1.7964    5.3320   -0.8214 C   0  0  0  0  0  0  0  0  0  0  0  0
   -2.2048    4.0014   -0.5140 C   0  0  0  0  0  0  0  0  0  0  0  0
   -3.5998    3.8916   -0.2395 C   0  0  0  0  0  0  0  0  0  0  0  0
   -4.2151    4.0960   -1.5100 C   0  0  0  0  0  0  0  0  0  0  0  0
   -4.2798    3.8221    1.1222 C   0  0  0  0  0  0  0  0  0  0  0  0
   -4.9735    2.5365    1.2782 N   0  0  0  0  0  0  0  0  0  0  0  0
   -5.2841    1.1324    1.2693 C   0  0  0  0  0  0  0  0  0  0  0  0
   -6.3520    1.9082    0.8125 C   0  0  0  0  0  0  0  0  0  0  0  0
   -7.3474    1.2418    0.1037 C   0  0  0  0  0  0  0  0  0  0  0  0
   -7.4572   -0.1440    0.1748 C   0  0  0  0  0  0  0  0  0  0  0  0
   -8.7966   -0.6863    0.1230 C   0  0  0  0  0  0  0  0  0  0  0  0
   -9.8997   -1.0553    0.2207 N   0  0  0  0  0  0  0  0  0  0  0  0
   -6.5395   -0.9108    0.8872 C   0  0  0  0  0  0  0  0  0  0  0  0
   -5.3686   -0.2625    1.2901 C   0  0  0  0  0  0  0  0  0  0  0  0
   -5.2837   -1.6827    1.4874 N   0  0  0  0  0  0  0  0  0  0  0  0
   -5.1847   -3.0479    1.9534 C   0  0  0  0  0  0  0  0  0  0  0  0
   -4.1189   -3.8307    1.2050 C   0  0  0  0  0  0  0  0  0  0  0  0
   -2.7506   -4.0207    1.5731 C   0  0  0  0  0  0  0  0  0  0  0  0
   -2.3574   -5.3940    1.5810 C   0  0  0  0  0  0  0  0  0  0  0  0
   -2.3294   -5.7401    0.1996 C   0  0  0  0  0  0  0  0  0  0  0  0
   -3.0031   -4.8029   -0.6396 C   0  0  0  0  0  0  0  0  0  0  0  0
   -4.2417   -4.6354    0.0346 C   0  0  0  0  0  0  0  0  0  0  0  0
   -2.4889   -3.9933   -1.8403 C   0  0  0  0  0  0  0  0  0  0  0  0
   -1.0422   -3.9278   -1.8869 N   0  0  0  0  0  0  0  0  0  0  0  0
    0.3747   -3.7313   -1.7495 C   0  0  0  0  0  0  0  0  0  0  0  0
    0.0748   -4.8699   -2.5035 C   0  0  0  0  0  0  0  0  0  0  0  0
    1.1168   -5.7691   -2.7081 C   0  0  0  0  0  0  0  0  0  0  0  0
    0.8197   -6.9013   -3.5285 C   0  0  0  0  0  0  0  0  0  0  0  0
    0.7006   -7.9388   -4.0336 N   0  0  0  0  0  0  0  0  0  0  0  0
    2.1352   -5.7683   -1.7621 C   0  0  0  0  0  0  0  0  0  0  0  0
    2.6216   -4.5081   -1.4270 C   0  0  0  0  0  0  0  0  0  0  0  0
    1.7122   -3.4474   -1.4562 C   0  0  0  0  0  0  0  0  0  0  0  0
    3.0772   -2.9906   -1.4136 N   0  0  0  0  0  0  0  0  0  0  0  0
    4.3743   -2.3192   -1.5365 C   0  0  0  0  0  0  0  0  0  0  0  0
    4.2673   -0.8927   -0.9742 C   0  0  0  0  0  0  0  0  0  0  0  0
    4.0351    0.3239   -1.6738 C   0  0  0  0  0  0  0  0  0  0  0  0
    5.1674    1.1832   -1.6810 C   0  0  0  0  0  0  0  0  0  0  0  0
    6.1575    0.4401   -0.9778 C   0  0  0  0  0  0  0  0  0  0  0  0
    5.8103    0.2484    0.3943 C   0  0  0  0  0  0  0  0  0  0  0  0
    4.5540   -0.4167    0.3370 C   0  0  0  0  0  0  0  0  0  0  0  0
    6.4958    0.8828    1.5967 C   0  0  0  0  0  0  0  0  0  0  0  0
    5.9283    2.1576    1.9615 N   0  0  0  0  0  0  0  0  0  0  0  0
    4.8423    3.0229    2.3482 C   0  0  0  0  0  0  0  0  0  0  0  0
    5.7944    3.6822    1.5708 C   0  0  0  0  0  0  0  0  0  0  0  0
    5.4842    4.9935    1.2262 C   0  0  0  0  0  0  0  0  0  0  0  0
    6.5317    5.8224    0.7325 C   0  0  0  0  0  0  0  0  0  0  0  0
    7.4119    6.5729    0.5964 N   0  0  0  0  0  0  0  0  0  0  0  0
    4.1971    5.5000    1.3595 C   0  0  0  0  0  0  0  0  0  0  0  0
    3.1557    4.6921    1.8038 C   0  0  0  0  0  0  0  0  0  0  0  0
    3.5488    3.5461    2.4922 C   0  0  0  0  0  0  0  0  0  0  0  0
    2.1172    3.6046    2.2938 N   0  0  0  0  0  0  0  0  0  0  0  0
    0.8299    2.9254    2.0901 C   0  0  0  0  0  0  0  0  0  0  0  0
    1.0654    1.4423    1.7572 C   0  0  0  0  0  0  0  0  0  0  0  0
    1.5026    0.4255    2.6547 C   0  0  0  0  0  0  0  0  0  0  0  0
    0.4814   -0.5255    2.9643 C   0  0  0  0  0  0  0  0  0  0  0  0
    0.3287   -1.1664    1.6975 C   0  0  0  0  0  0  0  0  0  0  0  0
   -0.2108   -0.3283    0.6740 C   0  0  0  0  0  0  0  0  0  0  0  0
    0.7967    0.6787    0.5778 C   0  0  0  0  0  0  0  0  0  0  0  0
   -1.6300   -0.3401    0.0798 C   0  0  0  0  0  0  0  0  0  0  0  0
   -1.6184    0.0559   -1.2958 N   0  0  0  0  0  0  0  0  0  0  0  0
   -2.1528    0.6765   -2.4517 C   0  0  0  0  0  0  0  0  0  0  0  0
   -1.1937   -0.2741   -2.7874 C   0  0  0  0  0  0  0  0  0  0  0  0
   -0.4480   -0.6188    4.1834 C   0  0  0  0  0  0  0  0  0  0  0  0
   -0.3537   -1.9388    4.8060 N   0  0  0  0  0  0  0  0  0  0  0  0
   -0.6497   -3.3415    4.9266 C   0  0  0  0  0  0  0  0  0  0  0  0
    0.6866   -3.0542    5.2089 C   0  0  0  0  0  0  0  0  0  0  0  0
    1.5404   -4.1346    5.3997 C   0  0  0  0  0  0  0  0  0  0  0  0
    1.1598   -5.4049    4.9860 C   0  0  0  0  0  0  0  0  0  0  0  0
    2.1611   -6.3945    4.7624 C   0  0  0  0  0  0  0  0  0  0  0  0
    3.0681   -7.0179    4.3730 N   0  0  0  0  0  0  0  0  0  0  0  0
   -0.1146   -5.6741    4.4988 C   0  0  0  0  0  0  0  0  0  0  0  0
   -1.0536   -4.6506    4.6319 C   0  0  0  0  0  0  0  0  0  0  0  0
   -1.5681   -5.7756    3.8896 N   0  0  0  0  0  0  0  0  0  0  0  0
   -2.3931   -6.3089    2.8027 C   0  0  0  0  0  0  0  0  0  0  0  0
    5.3240    2.6147   -2.1584 C   0  0  0  0  0  0  0  0  0  0  0  0
    4.0702    3.3412   -2.2443 N   0  0  0  0  0  0  0  0  0  0  0  0
    2.8775    4.1365   -2.1332 C   0  0  0  0  0  0  0  0  0  0  0  0
    3.2573    3.9526   -3.4648 C   0  0  0  0  0  0  0  0  0  0  0  0
    2.3345    4.3007   -4.4468 C   0  0  0  0  0  0  0  0  0  0  0  0
    2.8758    4.4254   -5.7819 C   0  0  0  0  0  0  0  0  0  0  0  0
    3.3767    4.7562   -6.7833 N   0  0  0  0  0  0  0  0  0  0  0  0
    1.1712    4.9829   -4.1057 C   0  0  0  0  0  0  0  0  0  0  0  0
    0.9520    5.4536   -2.8139 C   0  0  0  0  0  0  0  0  0  0  0  0
    1.7498    4.8944   -1.8126 C   0  0  0  0  0  0  0  0  0  0  0  0
    0.6060    5.5806   -1.2756 N   0  0  0  0  0  0  0  0  0  0  0  0
   -0.4916    5.9970   -0.4003 C   0  0  0  0  0  0  0  0  0  0  0  0
   -1.3995    0.2984   -6.1612 H   0  0  0  0  0  0  0  0  0  0  0  0
   -2.9366    1.9756   -5.3562 H   0  0  0  0  0  0  0  0  0  0  0  0
   -1.8850    2.8416   -4.4724 H   0  0  0  0  0  0  0  0  0  0  0  0
   -3.7574    4.6568   -4.6059 H   0  0  0  0  0  0  0  0  0  0  0  0
   -2.0507    4.7390   -4.2180 H   0  0  0  0  0  0  0  0  0  0  0  0
   -3.1337    6.8548   -1.7598 H   0  0  0  0  0  0  0  0  0  0  0  0
   -1.5534    3.1242   -0.5717 H   0  0  0  0  0  0  0  0  0  0  0  0
   -5.1977    3.6974   -1.7742 H   0  0  0  0  0  0  0  0  0  0  0  0
   -5.0148    4.6116    1.3035 H   0  0  0  0  0  0  0  0  0  0  0  0
   -3.6077    3.8631    1.9703 H   0  0  0  0  0  0  0  0  0  0  0  0
   -5.4564    2.6457    0.3439 H   0  0  0  0  0  0  0  0  0  0  0  0
   -6.5876    2.7135    1.5190 H   0  0  0  0  0  0  0  0  0  0  0  0
   -8.2024    1.8586   -0.1764 H   0  0  0  0  0  0  0  0  0  0  0  0
   -6.9119   -1.5771    1.6776 H   0  0  0  0  0  0  0  0  0  0  0  0
   -5.7647   -1.8412    0.5617 H   0  0  0  0  0  0  0  0  0  0  0  0
   -5.0475   -3.0108    3.0386 H   0  0  0  0  0  0  0  0  0  0  0  0
   -6.1992   -3.4764    1.8622 H   0  0  0  0  0  0  0  0  0  0  0  0
   -2.0546   -3.2053    1.7832 H   0  0  0  0  0  0  0  0  0  0  0  0
   -1.7077   -6.5428   -0.2029 H   0  0  0  0  0  0  0  0  0  0  0  0
   -5.1792   -5.0533   -0.3391 H   0  0  0  0  0  0  0  0  0  0  0  0
   -2.8031   -2.9572   -1.8564 H   0  0  0  0  0  0  0  0  0  0  0  0
   -2.7673   -4.5269   -2.7861 H   0  0  0  0  0  0  0  0  0  0  0  0
   -0.9160   -4.9677   -1.7446 H   0  0  0  0  0  0  0  0  0  0  0  0
   -0.6253   -4.6279   -3.3128 H   0  0  0  0  0  0  0  0  0  0  0  0
    2.9006   -6.5359   -1.8481 H   0  0  0  0  0  0  0  0  0  0  0  0
    3.3170   -4.3908   -0.5874 H   0  0  0  0  0  0  0  0  0  0  0  0
    3.3682   -3.7513   -2.0873 H   0  0  0  0  0  0  0  0  0  0  0  0
    4.6879   -2.3636   -2.5773 H   0  0  0  0  0  0  0  0  0  0  0  0
    5.0927   -2.9479   -1.0091 H   0  0  0  0  0  0  0  0  0  0  0  0
    3.1044    0.5214   -2.2096 H   0  0  0  0  0  0  0  0  0  0  0  0
    7.0385   -0.0085   -1.4435 H   0  0  0  0  0  0  0  0  0  0  0  0
    3.9935   -0.7618    1.2083 H   0  0  0  0  0  0  0  0  0  0  0  0
    7.5703    1.0310    1.4734 H   0  0  0  0  0  0  0  0  0  0  0  0
    6.4758    0.2125    2.4950 H   0  0  0  0  0  0  0  0  0  0  0  0
    5.9692    2.5844    0.9969 H   0  0  0  0  0  0  0  0  0  0  0  0
    6.7847    3.5576    2.0256 H   0  0  0  0  0  0  0  0  0  0  0  0
    3.9419    6.3890    0.8050 H   0  0  0  0  0  0  0  0  0  0  0  0
    2.4032    5.2194    2.4028 H   0  0  0  0  0  0  0  0  0  0  0  0
    2.2247    4.0080    1.3240 H   0  0  0  0  0  0  0  0  0  0  0  0
    0.3692    3.4760    1.2697 H   0  0  0  0  0  0  0  0  0  0  0  0
    0.1424    3.0695    2.9326 H   0  0  0  0  0  0  0  0  0  0  0  0
    2.4820    0.4184    3.1417 H   0  0  0  0  0  0  0  0  0  0  0  0
    0.5312   -2.2320    1.5439 H   0  0  0  0  0  0  0  0  0  0  0  0
    1.2856    0.9103   -0.3778 H   0  0  0  0  0  0  0  0  0  0  0  0
   -2.0595   -1.3471    0.0565 H   0  0  0  0  0  0  0  0  0  0  0  0
   -2.3232    0.2601    0.7209 H   0  0  0  0  0  0  0  0  0  0  0  0
   -1.6471   -0.8783   -1.7821 H   0  0  0  0  0  0  0  0  0  0  0  0
   -0.2676   -0.1598   -2.2080 H   0  0  0  0  0  0  0  0  0  0  0  0
   -1.4768   -0.3190    3.9609 H   0  0  0  0  0  0  0  0  0  0  0  0
   -0.1380    0.0358    5.0021 H   0  0  0  0  0  0  0  0  0  0  0  0
    0.5833   -2.1398    4.3621 H   0  0  0  0  0  0  0  0  0  0  0  0
    0.7380   -2.2807    5.9845 H   0  0  0  0  0  0  0  0  0  0  0  0
    2.5435   -3.8982    5.7202 H   0  0  0  0  0  0  0  0  0  0  0  0
   -0.5461   -6.6138    4.8648 H   0  0  0  0  0  0  0  0  0  0  0  0
   -0.6469   -5.9142    3.3926 H   0  0  0  0  0  0  0  0  0  0  0  0
   -3.4040   -6.5748    3.1230 H   0  0  0  0  0  0  0  0  0  0  0  0
   -1.8794   -7.2711    2.6307 H   0  0  0  0  0  0  0  0  0  0  0  0
    5.9428    3.2586   -1.5410 H   0  0  0  0  0  0  0  0  0  0  0  0
    5.7191    2.6445   -3.2069 H   0  0  0  0  0  0  0  0  0  0  0  0
    3.6428    2.8301   -3.0652 H   0  0  0  0  0  0  0  0  0  0  0  0
    4.3142    4.2092   -3.6155 H   0  0  0  0  0  0  0  0  0  0  0  0
    0.7284    5.5840   -4.9017 H   0  0  0  0  0  0  0  0  0  0  0  0
    0.7514    6.5141   -2.6169 H   0  0  0  0  0  0  0  0  0  0  0  0
    0.0026    5.1806   -2.0457 H   0  0  0  0  0  0  0  0  0  0  0  0
   -0.2486    5.8549    0.6686 H   0  0  0  0  0  0  0  0  0  0  0  0
   -0.5070    7.0905   -0.4875 H   0  0  0  0  0  0  0  0  0  0  0  0
  1  2  3  0
  2  3  1  0
  3  4  2  0
  4  5  1  0
  5  6  2  0
  6  7  1  0
  7  8  1  0
  8  9  1  0
  9 10  1  0
 10 11  2  0
 11 12  1  0
 12 13  2  0
 13 14  1  0
 13 15  1  0
 15 16  1  0
 16 17  1  0
 17 18  2  0
 18 19  1  0
 19 20  2  0
 20 21  1  0
 21 22  3  0
 20 23  1  0
 23 24  2  0
 24 25  1  0
 25 26  1  0
 26 27  1  0
 27 28  1  0
 28 29  2  0
 29 30  1  0
 30 31  2  0
 31 32  1  0
 31 33  1  0
 33 34  1  0
 34 35  1  0
 35 36  2  0
 36 37  1  0
 37 38  1  0
 38 39  3  0
 37 40  2  0
 40 41  1  0
 41 42  2  0
 42 43  1  0
 43 44  1  0
 44 45  1  0
 45 46  1  0
 46 47  2  0
 47 48  1  0
 48 49  2  0
 49 50  1  0
 49 51  1  0
 51 52  1  0
 52 53  1  0
 53 54  2  0
 54 55  1  0
 55 56  1  0
 56 57  3  0
 55 58  2  0
 58 59  1  0
 59 60  2  0
 60 61  1  0
 61 62  1  0
 62 63  1  0
 63 64  1  0
 64 65  2  0
 65 66  1  0
 66 67  2  0
 67 68  1  0
 67 69  1  0
 69 70  1  0
 70 71  1  0
 71 72  2  0
 65 73  1  0
 73 74  1  0
 74 75  1  0
 75 76  2  0
 76 77  1  0
 77 78  2  0
 78 79  1  0
 79 80  3  0
 78 81  1  0
 81 82  2  0
 82 83  1  0
 83 84  1  0
 47 85  1  0
 85 86  1  0
 86 87  1  0
 87 88  2  0
 88 89  1  0
 89 90  1  0
 90 91  3  0
 89 92  2  0
 92 93  1  0
 93 94  2  0
 94 95  1  0
 95 96  1  0
 72  3  1  0
 82 75  1  0
 94 87  1  0
 71  6  1  0
 14  9  2  0
 24 17  1  0
 32 27  2  0
 42 35  1  0
 50 45  2  0
 60 53  1  0
 68 63  2  0
 96 11  1  0
 84 29  1  0
  4 97  1  0
  5 98  1  0
  7 99  1  0
  8100  1  0
  8101  1  0
 10102  1  0
 12103  1  0
 14104  1  0
 15105  1  0
 15106  1  0
 16107  1  0
 18108  1  0
 19109  1  0
 23110  1  0
 25111  1  0
 26112  1  0
 26113  1  0
 28114  1  0
 30115  1  0
 32116  1  0
 33117  1  0
 33118  1  0
 34119  1  0
 36120  1  0
 40121  1  0
 41122  1  0
 43123  1  0
 44124  1  0
 44125  1  0
 46126  1  0
 48127  1  0
 50128  1  0
 51129  1  0
 51130  1  0
 52131  1  0
 54132  1  0
 58133  1  0
 59134  1  0
 61135  1  0
 62136  1  0
 62137  1  0
 64138  1  0
 66139  1  0
 68140  1  0
 69141  1  0
 69142  1  0
 70143  1  0
 72144  1  0
 73145  1  0
 73146  1  0
 74147  1  0
 76148  1  0
 77149  1  0
 81150  1  0
 83151  1  0
 84152  1  0
 84153  1  0
 85154  1  0
 85155  1  0
 86156  1  0
 88157  1  0
 92158  1  0
 93159  1  0
 95160  1  0
 96161  1  0
 96162  1  0
M  END
