
     RDKit          3D

210222  0  0  0  0  0  0  0  0999 V2000
    0.1116    6.1232   -0.7351 C   0  0  0  0  0  0  0  0  0  0  0  0
    1.0716    5.2621   -1.2749 C   0  0  0  0  0  0  0  0  0  0  0  0
    0.7767    3.9031   -1.1906 C   0  0  0  0  0  0  0  0  0  0  0  0
   -0.4223    3.4330   -0.9604 C   0  0  0  0  0  0  0  0  0  0  0  0
    0.1739    2.3094   -1.5147 C   0  0  0  0  0  0  0  0  0  0  0  0
   -0.4493    1.2218   -2.1282 N   0  0  0  0  0  0  0  0  0  0  0  0
   -0.0691    0.0895   -2.7338 C   0  0  0  0  0  0  0  0  0  0  0  0
   -0.7100   -0.7736   -3.7659 C   0  0  0  0  0  0  0  0  0  0  0  0
   -1.4600   -2.0118   -3.7469 C   0  0  0  0  0  0  0  0  0  0  0  0
   -0.7110   -3.1993   -3.4633 C   0  0  0  0  0  0  0  0  0  0  0  0
    0.6396   -2.7867   -3.7533 C   0  0  0  0  0  0  0  0  0  0  0  0
    0.6711   -2.3240   -5.1111 C   0  0  0  0  0  0  0  0  0  0  0  0
   -0.2084   -1.1976   -5.0544 C   0  0  0  0  0  0  0  0  0  0  0  0
    1.2035   -3.0504   -6.2699 C   0  0  0  0  0  0  0  0  0  0  0  0
    2.5966   -2.7210   -6.6089 N   0  0  0  0  0  0  0  0  0  0  0  0
    3.5067   -3.4320   -5.7147 C   0  0  0  0  0  0  0  0  0  0  0  0
    4.9194   -3.3365   -6.2144 C   0  0  0  0  0  0  0  0  0  0  0  0
    5.4829   -1.9700   -5.9660 C   0  0  0  0  0  0  0  0  0  0  0  0
    5.2544   -2.1181   -7.3286 C   0  0  0  0  0  0  0  0  0  0  0  0
    5.0140   -1.0238   -8.1529 C   0  0  0  0  0  0  0  0  0  0  0  0
    4.8419    0.2010   -7.5157 C   0  0  0  0  0  0  0  0  0  0  0  0
    5.4349    0.3626   -6.2867 C   0  0  0  0  0  0  0  0  0  0  0  0
    5.7542   -0.7033   -5.4529 C   0  0  0  0  0  0  0  0  0  0  0  0
    6.3324    0.5181   -4.8988 C   0  0  0  0  0  0  0  0  0  0  0  0
    6.5940    0.5676   -3.5333 N   0  0  0  0  0  0  0  0  0  0  0  0
    6.2728   -0.5618   -2.6996 C   0  0  0  0  0  0  0  0  0  0  0  0
    5.1000   -0.4777   -1.8343 C   0  0  0  0  0  0  0  0  0  0  0  0
    4.9713    0.1538   -0.5593 C   0  0  0  0  0  0  0  0  0  0  0  0
    3.7161   -0.0569    0.1259 C   0  0  0  0  0  0  0  0  0  0  0  0
    3.2505    0.9319   -0.7869 C   0  0  0  0  0  0  0  0  0  0  0  0
    3.1581    0.7955   -2.2104 C   0  0  0  0  0  0  0  0  0  0  0  0
    3.7437   -0.5194   -2.2876 C   0  0  0  0  0  0  0  0  0  0  0  0
    2.7328    1.6702   -3.3490 C   0  0  0  0  0  0  0  0  0  0  0  0
    1.5350    1.8429   -4.1188 N   0  0  0  0  0  0  0  0  0  0  0  0
    0.5307    2.6990   -4.4513 C   0  0  0  0  0  0  0  0  0  0  0  0
   -1.0080    2.7917   -4.1840 C   0  0  0  0  0  0  0  0  0  0  0  0
   -0.8004    2.6047   -5.4430 C   0  0  0  0  0  0  0  0  0  0  0  0
   -1.7659    2.2690   -6.3827 C   0  0  0  0  0  0  0  0  0  0  0  0
   -2.9202    1.7572   -5.8598 C   0  0  0  0  0  0  0  0  0  0  0  0
   -3.2484    2.1935   -4.5844 C   0  0  0  0  0  0  0  0  0  0  0  0
   -2.3936    2.7571   -3.7015 C   0  0  0  0  0  0  0  0  0  0  0  0
   -3.6936    2.2207   -3.0677 C   0  0  0  0  0  0  0  0  0  0  0  0
   -4.5262    2.7291   -2.0712 C   0  0  0  0  0  0  0  0  0  0  0  0
   -5.1232    2.0904   -0.8989 N   0  0  0  0  0  0  0  0  0  0  0  0
   -5.5607    2.3355    0.3393 C   0  0  0  0  0  0  0  0  0  0  0  0
   -5.3789    1.9414    1.8164 C   0  0  0  0  0  0  0  0  0  0  0  0
   -5.4330    2.6923    3.0262 C   0  0  0  0  0  0  0  0  0  0  0  0
   -4.3932    3.0215    3.8961 C   0  0  0  0  0  0  0  0  0  0  0  0
   -3.4553    2.0717    3.4757 C   0  0  0  0  0  0  0  0  0  0  0  0
   -3.8560    0.7057    3.4410 C   0  0  0  0  0  0  0  0  0  0  0  0
   -5.1363    0.8719    2.7791 C   0  0  0  0  0  0  0  0  0  0  0  0
   -2.8482   -0.2550    3.9587 C   0  0  0  0  0  0  0  0  0  0  0  0
   -1.8140   -0.9592    3.4300 N   0  0  0  0  0  0  0  0  0  0  0  0
   -1.0967   -1.9164    2.8673 C   0  0  0  0  0  0  0  0  0  0  0  0
   -1.0750   -3.3270    2.2906 C   0  0  0  0  0  0  0  0  0  0  0  0
    0.0901   -3.1162    2.4456 C   0  0  0  0  0  0  0  0  0  0  0  0
    1.0609   -4.0909    2.2492 C   0  0  0  0  0  0  0  0  0  0  0  0
    0.6620   -5.3837    2.5781 C   0  0  0  0  0  0  0  0  0  0  0  0
   -0.6043   -5.6524    2.0449 C   0  0  0  0  0  0  0  0  0  0  0  0
   -1.1834   -4.5585    1.5790 C   0  0  0  0  0  0  0  0  0  0  0  0
   -1.3208   -5.6093    0.4972 C   0  0  0  0  0  0  0  0  0  0  0  0
   -0.5793   -5.3010   -0.8075 C   0  0  0  0  0  0  0  0  0  0  0  0
   -1.3506   -5.0979   -1.9269 N   0  0  0  0  0  0  0  0  0  0  0  0
   -1.1135   -4.5778   -3.1846 C   0  0  0  0  0  0  0  0  0  0  0  0
   -3.9098    3.7891    5.0024 C   0  0  0  0  0  0  0  0  0  0  0  0
   -2.6128    3.4231    5.6185 N   0  0  0  0  0  0  0  0  0  0  0  0
   -1.3965    3.7672    5.1617 C   0  0  0  0  0  0  0  0  0  0  0  0
   -0.3824    2.8351    4.5236 C   0  0  0  0  0  0  0  0  0  0  0  0
    0.1984    3.8769    5.1742 C   0  0  0  0  0  0  0  0  0  0  0  0
    1.5705    4.0424    5.0948 C   0  0  0  0  0  0  0  0  0  0  0  0
    2.1113    3.8417    3.8290 C   0  0  0  0  0  0  0  0  0  0  0  0
    1.5278    2.8818    3.0400 C   0  0  0  0  0  0  0  0  0  0  0  0
    0.3762    2.2836    3.4573 C   0  0  0  0  0  0  0  0  0  0  0  0
    0.9409    1.8148    2.1046 C   0  0  0  0  0  0  0  0  0  0  0  0
    0.4635    0.6449    1.5492 C   0  0  0  0  0  0  0  0  0  0  0  0
    0.1013   -0.2134    0.6050 N   0  0  0  0  0  0  0  0  0  0  0  0
   -0.3781   -1.2952   -0.0449 C   0  0  0  0  0  0  0  0  0  0  0  0
   -1.8558   -1.7120   -0.2644 C   0  0  0  0  0  0  0  0  0  0  0  0
   -2.9426   -0.9710   -0.7315 C   0  0  0  0  0  0  0  0  0  0  0  0
   -3.2934   -0.0820    0.2828 C   0  0  0  0  0  0  0  0  0  0  0  0
   -4.1738   -1.1158    0.7717 C   0  0  0  0  0  0  0  0  0  0  0  0
   -3.7137   -2.3284    1.3841 C   0  0  0  0  0  0  0  0  0  0  0  0
   -2.9576   -2.5566    0.1639 C   0  0  0  0  0  0  0  0  0  0  0  0
   -3.7874   -3.0350    2.7348 C   0  0  0  0  0  0  0  0  0  0  0  0
   -3.1270   -3.2704    3.9384 N   0  0  0  0  0  0  0  0  0  0  0  0
   -2.0147   -3.4488    4.8305 C   0  0  0  0  0  0  0  0  0  0  0  0
   -0.8787   -2.8846    5.5172 C   0  0  0  0  0  0  0  0  0  0  0  0
    0.5628   -2.3606    5.2496 C   0  0  0  0  0  0  0  0  0  0  0  0
    0.6482   -3.4723    5.9492 C   0  0  0  0  0  0  0  0  0  0  0  0
    1.8245   -4.1549    6.1059 C   0  0  0  0  0  0  0  0  0  0  0  0
    2.9705   -3.4527    5.8108 C   0  0  0  0  0  0  0  0  0  0  0  0
    2.9034   -2.3786    4.9292 C   0  0  0  0  0  0  0  0  0  0  0  0
    1.7533   -1.7656    4.6006 C   0  0  0  0  0  0  0  0  0  0  0  0
    2.9079   -1.4533    3.6318 C   0  0  0  0  0  0  0  0  0  0  0  0
    3.0858   -0.9671    2.4591 N   0  0  0  0  0  0  0  0  0  0  0  0
    3.2827   -1.1752    1.0719 C   0  0  0  0  0  0  0  0  0  0  0  0
   -2.7540    1.2260    0.5361 C   0  0  0  0  0  0  0  0  0  0  0  0
   -2.4776    2.4783    0.3298 N   0  0  0  0  0  0  0  0  0  0  0  0
   -2.7810    3.7678    0.6982 C   0  0  0  0  0  0  0  0  0  0  0  0
   -1.6869    4.6757    1.1859 C   0  0  0  0  0  0  0  0  0  0  0  0
   -0.9424    4.2692    0.0218 C   0  0  0  0  0  0  0  0  0  0  0  0
   -0.9966    5.5964   -0.0662 C   0  0  0  0  0  0  0  0  0  0  0  0
    0.3093    7.1927   -0.6620 H   0  0  0  0  0  0  0  0  0  0  0  0
    1.8547    5.6612   -1.9084 H   0  0  0  0  0  0  0  0  0  0  0  0
    1.4627    3.2027   -1.5090 H   0  0  0  0  0  0  0  0  0  0  0  0
    1.0670    2.8122   -1.8167 H   0  0  0  0  0  0  0  0  0  0  0  0
    0.6749    1.7335   -0.8258 H   0  0  0  0  0  0  0  0  0  0  0  0
   -1.3103    1.0133   -1.8259 H   0  0  0  0  0  0  0  0  0  0  0  0
    0.3888    0.1944   -2.2320 H   0  0  0  0  0  0  0  0  0  0  0  0
    0.8807   -0.4551   -2.5119 H   0  0  0  0  0  0  0  0  0  0  0  0
   -2.5537   -1.9006   -3.5936 H   0  0  0  0  0  0  0  0  0  0  0  0
    1.4659   -2.7767   -3.0292 H   0  0  0  0  0  0  0  0  0  0  0  0
   -0.2623   -0.4267   -5.8527 H   0  0  0  0  0  0  0  0  0  0  0  0
    0.6067   -3.1642   -7.2112 H   0  0  0  0  0  0  0  0  0  0  0  0
    1.3074   -4.1697   -6.1763 H   0  0  0  0  0  0  0  0  0  0  0  0
    2.7448   -3.1272   -7.5462 H   0  0  0  0  0  0  0  0  0  0  0  0
    3.2604   -4.5116   -5.6378 H   0  0  0  0  0  0  0  0  0  0  0  0
    3.5181   -2.9794   -4.6946 H   0  0  0  0  0  0  0  0  0  0  0  0
    5.5702   -4.0466   -5.6857 H   0  0  0  0  0  0  0  0  0  0  0  0
    5.0239   -3.5432   -7.2951 H   0  0  0  0  0  0  0  0  0  0  0  0
    5.1430   -3.1168   -7.7027 H   0  0  0  0  0  0  0  0  0  0  0  0
    4.4946   -1.1821   -9.0976 H   0  0  0  0  0  0  0  0  0  0  0  0
    4.1389    0.9168   -7.9399 H   0  0  0  0  0  0  0  0  0  0  0  0
    5.4817    1.3564   -5.8569 H   0  0  0  0  0  0  0  0  0  0  0  0
    7.2809    0.7536   -5.4502 H   0  0  0  0  0  0  0  0  0  0  0  0
    5.6553    1.3642   -5.1873 H   0  0  0  0  0  0  0  0  0  0  0  0
    7.4015    1.1154   -3.2091 H   0  0  0  0  0  0  0  0  0  0  0  0
    7.2500   -0.9306   -2.2869 H   0  0  0  0  0  0  0  0  0  0  0  0
    6.3071   -1.3965   -3.4564 H   0  0  0  0  0  0  0  0  0  0  0  0
    5.8411    0.4991    0.0604 H   0  0  0  0  0  0  0  0  0  0  0  0
    2.8042    1.7839   -0.2251 H   0  0  0  0  0  0  0  0  0  0  0  0
    3.2031   -1.4183   -2.6177 H   0  0  0  0  0  0  0  0  0  0  0  0
    3.4966    1.6468   -4.1833 H   0  0  0  0  0  0  0  0  0  0  0  0
    2.9969    2.7674   -3.2295 H   0  0  0  0  0  0  0  0  0  0  0  0
    1.6651    1.1626   -4.9255 H   0  0  0  0  0  0  0  0  0  0  0  0
    0.5375    2.7693   -5.5409 H   0  0  0  0  0  0  0  0  0  0  0  0
    0.8336    3.7554   -4.2034 H   0  0  0  0  0  0  0  0  0  0  0  0
    0.1582    2.9869   -5.8002 H   0  0  0  0  0  0  0  0  0  0  0  0
   -1.4391    1.8118   -7.3209 H   0  0  0  0  0  0  0  0  0  0  0  0
   -3.5511    1.0778   -6.4389 H   0  0  0  0  0  0  0  0  0  0  0  0
   -4.3137    2.2049   -4.3417 H   0  0  0  0  0  0  0  0  0  0  0  0
   -3.4032    1.1993   -2.8097 H   0  0  0  0  0  0  0  0  0  0  0  0
   -4.3760    1.9159   -3.9234 H   0  0  0  0  0  0  0  0  0  0  0  0
   -5.5333    2.9519   -2.5549 H   0  0  0  0  0  0  0  0  0  0  0  0
   -4.3117    3.8205   -1.9250 H   0  0  0  0  0  0  0  0  0  0  0  0
   -5.4858    1.1864   -1.3090 H   0  0  0  0  0  0  0  0  0  0  0  0
   -6.6673    2.1469    0.1142 H   0  0  0  0  0  0  0  0  0  0  0  0
   -5.6199    3.4548    0.2521 H   0  0  0  0  0  0  0  0  0  0  0  0
   -6.4091    3.1401    3.3658 H   0  0  0  0  0  0  0  0  0  0  0  0
   -2.5218    2.4363    2.9747 H   0  0  0  0  0  0  0  0  0  0  0  0
   -5.8296   -0.0113    2.7515 H   0  0  0  0  0  0  0  0  0  0  0  0
   -2.4900    0.0767    5.0055 H   0  0  0  0  0  0  0  0  0  0  0  0
   -3.5103   -0.8439    4.6949 H   0  0  0  0  0  0  0  0  0  0  0  0
   -1.0238   -0.3936    3.8742 H   0  0  0  0  0  0  0  0  0  0  0  0
   -1.4300   -1.3798    2.1850 H   0  0  0  0  0  0  0  0  0  0  0  0
   -0.0551   -1.8380    2.7860 H   0  0  0  0  0  0  0  0  0  0  0  0
    0.3098   -2.1014    2.5258 H   0  0  0  0  0  0  0  0  0  0  0  0
    2.1060   -3.8183    2.1827 H   0  0  0  0  0  0  0  0  0  0  0  0
    1.3834   -6.1796    2.6959 H   0  0  0  0  0  0  0  0  0  0  0  0
   -0.8819   -6.5901    1.6188 H   0  0  0  0  0  0  0  0  0  0  0  0
   -0.9921   -6.5104    1.0027 H   0  0  0  0  0  0  0  0  0  0  0  0
   -2.4032   -5.7564    0.2532 H   0  0  0  0  0  0  0  0  0  0  0  0
    0.0794   -6.1969   -0.9493 H   0  0  0  0  0  0  0  0  0  0  0  0
    0.1366   -4.4560   -0.6784 H   0  0  0  0  0  0  0  0  0  0  0  0
   -2.3496   -5.3524   -1.7063 H   0  0  0  0  0  0  0  0  0  0  0  0
   -0.4750   -5.3961   -3.6440 H   0  0  0  0  0  0  0  0  0  0  0  0
   -1.9810   -5.0035   -3.7862 H   0  0  0  0  0  0  0  0  0  0  0  0
   -4.4859    3.7191    5.9755 H   0  0  0  0  0  0  0  0  0  0  0  0
   -3.8445    4.9103    4.9399 H   0  0  0  0  0  0  0  0  0  0  0  0
   -2.6908    2.4411    5.9815 H   0  0  0  0  0  0  0  0  0  0  0  0
   -1.4525    4.7379    4.6031 H   0  0  0  0  0  0  0  0  0  0  0  0
   -0.8280    4.0698    6.0908 H   0  0  0  0  0  0  0  0  0  0  0  0
   -0.2961    4.2256    6.0769 H   0  0  0  0  0  0  0  0  0  0  0  0
    2.1501    4.5250    5.8683 H   0  0  0  0  0  0  0  0  0  0  0  0
    3.0950    4.2362    3.6463 H   0  0  0  0  0  0  0  0  0  0  0  0
    2.1292    2.5667    2.1931 H   0  0  0  0  0  0  0  0  0  0  0  0
    2.0451    1.7728    2.3672 H   0  0  0  0  0  0  0  0  0  0  0  0
    1.0600    2.7691    1.5569 H   0  0  0  0  0  0  0  0  0  0  0  0
   -0.4867    0.9106    2.0964 H   0  0  0  0  0  0  0  0  0  0  0  0
    0.7972    0.1049    2.4749 H   0  0  0  0  0  0  0  0  0  0  0  0
   -0.6713    0.2046    0.2168 H   0  0  0  0  0  0  0  0  0  0  0  0
    0.2045   -1.6027   -0.9535 H   0  0  0  0  0  0  0  0  0  0  0  0
    0.2454   -2.2024    0.1899 H   0  0  0  0  0  0  0  0  0  0  0  0
   -3.0717   -0.6733   -1.7922 H   0  0  0  0  0  0  0  0  0  0  0  0
   -5.2795   -0.9168    0.6799 H   0  0  0  0  0  0  0  0  0  0  0  0
   -3.0534   -3.5396   -0.3514 H   0  0  0  0  0  0  0  0  0  0  0  0
   -4.8488   -2.8096    3.0844 H   0  0  0  0  0  0  0  0  0  0  0  0
   -4.1105   -4.1116    2.5732 H   0  0  0  0  0  0  0  0  0  0  0  0
   -3.9335   -3.1190    4.6164 H   0  0  0  0  0  0  0  0  0  0  0  0
   -1.8391   -4.5693    4.7213 H   0  0  0  0  0  0  0  0  0  0  0  0
   -2.6112   -3.6041    5.7930 H   0  0  0  0  0  0  0  0  0  0  0  0
   -0.6313   -3.6647    6.2655 H   0  0  0  0  0  0  0  0  0  0  0  0
   -1.1740   -2.0184    6.1792 H   0  0  0  0  0  0  0  0  0  0  0  0
   -0.2712   -4.0313    6.1454 H   0  0  0  0  0  0  0  0  0  0  0  0
    1.8023   -5.1188    6.5917 H   0  0  0  0  0  0  0  0  0  0  0  0
    3.9062   -3.9645    6.0207 H   0  0  0  0  0  0  0  0  0  0  0  0
    3.8253   -2.2328    4.3614 H   0  0  0  0  0  0  0  0  0  0  0  0
    3.4658   -2.4373    3.6034 H   0  0  0  0  0  0  0  0  0  0  0  0
    3.5005   -0.9006    4.4157 H   0  0  0  0  0  0  0  0  0  0  0  0
    3.5667   -0.0176    2.5190 H   0  0  0  0  0  0  0  0  0  0  0  0
    2.4993   -1.8212    0.5888 H   0  0  0  0  0  0  0  0  0  0  0  0
    3.9997   -2.0404    1.0840 H   0  0  0  0  0  0  0  0  0  0  0  0
   -2.2081    1.4414    1.0624 H   0  0  0  0  0  0  0  0  0  0  0  0
   -2.3479    1.0346    1.4028 H   0  0  0  0  0  0  0  0  0  0  0  0
   -2.4163    2.5849   -0.6103 H   0  0  0  0  0  0  0  0  0  0  0  0
   -3.4835    4.1260    1.4083 H   0  0  0  0  0  0  0  0  0  0  0  0
   -3.1831    4.4456   -0.1228 H   0  0  0  0  0  0  0  0  0  0  0  0
   -1.9723    5.7149    1.1204 H   0  0  0  0  0  0  0  0  0  0  0  0
   -1.3046    4.4934    2.1621 H   0  0  0  0  0  0  0  0  0  0  0  0
   -1.5575    6.1339    0.6779 H   0  0  0  0  0  0  0  0  0  0  0  0
  1  2  2  0
  2  3  1  0
  3  4  2  0
  4  5  1  0
  5  6  1  0
  6  7  1  0
  7  8  1  0
  8  9  2  0
  9 10  1  0
 10 11  2  0
 11 12  1  0
 12 13  2  0
 12 14  1  0
 14 15  1  0
 15 16  1  0
 16 17  1  0
 17 18  1  0
 18 19  2  0
 19 20  1  0
 20 21  2  0
 21 22  1  0
 22 23  2  0
 23 24  1  0
 24 25  1  0
 25 26  1  0
 26 27  1  0
 27 28  2  0
 28 29  1  0
 29 30  2  0
 30 31  1  0
 31 32  2  0
 31 33  1  0
 33 34  1  0
 34 35  1  0
 35 36  1  0
 36 37  2  0
 37 38  1  0
 38 39  2  0
 39 40  1  0
 40 41  2  0
 41 42  1  0
 42 43  1  0
 43 44  1  0
 44 45  1  0
 45 46  1  0
 46 47  1  0
 47 48  2  0
 48 49  1  0
 49 50  2  0
 50 51  1  0
 50 52  1  0
 52 53  1  0
 53 54  1  0
 54 55  1  0
 55 56  2  0
 56 57  1  0
 57 58  2  0
 58 59  1  0
 59 60  2  0
 60 61  1  0
 61 62  1  0
 62 63  1  0
 63 64  1  0
 48 65  1  0
 65 66  1  0
 66 67  1  0
 67 68  1  0
 68 69  2  0
 69 70  1  0
 70 71  2  0
 71 72  1  0
 72 73  2  0
 73 74  1  0
 74 75  1  0
 75 76  1  0
 76 77  1  0
 77 78  1  0
 78 79  2  0
 79 80  1  0
 80 81  2  0
 81 82  1  0
 82 83  2  0
 82 84  1  0
 84 85  1  0
 85 86  1  0
 86 87  1  0
 87 88  1  0
 88 89  2  0
 89 90  1  0
 90 91  2  0
 91 92  1  0
 92 93  2  0
 93 94  1  0
 94 95  1  0
 95 96  1  0
 80 97  1  0
 97 98  1  0
 98 99  1  0
 99100  1  0
100101  1  0
101102  2  0
102  1  1  0
101  4  1  0
 13  8  1  0
 23 18  1  0
 32 27  1  0
 41 36  1  0
 51 46  2  0
 60 55  1  0
 73 68  1  0
 83 78  1  0
 93 88  1  0
 64 10  1  0
 96 29  1  0
  1103  1  0
  2104  1  0
  3105  1  0
  5106  1  0
  5107  1  0
  6108  1  0
  7109  1  0
  7110  1  0
  9111  1  0
 11112  1  0
 13113  1  0
 14114  1  0
 14115  1  0
 15116  1  0
 16117  1  0
 16118  1  0
 17119  1  0
 17120  1  0
 19121  1  0
 20122  1  0
 21123  1  0
 22124  1  0
 24125  1  0
 24126  1  0
 25127  1  0
 26128  1  0
 26129  1  0
 28130  1  0
 30131  1  0
 32132  1  0
 33133  1  0
 33134  1  0
 34135  1  0
 35136  1  0
 35137  1  0
 37138  1  0
 38139  1  0
 39140  1  0
 40141  1  0
 42142  1  0
 42143  1  0
 43144  1  0
 43145  1  0
 44146  1  0
 45147  1  0
 45148  1  0
 47149  1  0
 49150  1  0
 51151  1  0
 52152  1  0
 52153  1  0
 53154  1  0
 54155  1  0
 54156  1  0
 56157  1  0
 57158  1  0
 58159  1  0
 59160  1  0
 61161  1  0
 61162  1  0
 62163  1  0
 62164  1  0
 63165  1  0
 64166  1  0
 64167  1  0
 65168  1  0
 65169  1  0
 66170  1  0
 67171  1  0
 67172  1  0
 69173  1  0
 70174  1  0
 71175  1  0
 72176  1  0
 74177  1  0
 74178  1  0
 75179  1  0
 75180  1  0
 76181  1  0
 77182  1  0
 77183  1  0
 79184  1  0
 81185  1  0
 83186  1  0
 84187  1  0
 84188  1  0
 85189  1  0
 86190  1  0
 86191  1  0
 87192  1  0
 87193  1  0
 89194  1  0
 90195  1  0
 91196  1  0
 92197  1  0
 94198  1  0
 94199  1  0
 95200  1  0
 96201  1  0
 96202  1  0
 97203  1  0
 97204  1  0
 98205  1  0
 99206  1  0
 99207  1  0
100208  1  0
100209  1  0
102210  1  0
M  END
