
     RDKit          3D

144156  0  0  0  0  0  0  0  0999 V2000
    3.5668   -1.2065    0.8412 O   0  0  0  0  0  0  0  0  0  0  0  0
    4.0615   -0.1677    0.3166 C   0  0  0  0  0  0  0  0  0  0  0  0
    2.9419    0.6510    0.6697 N   0  0  0  0  0  0  0  0  0  0  0  0
    2.0752    1.6553    1.2143 C   0  0  0  0  0  0  0  0  0  0  0  0
    0.6498    1.5330    0.6845 C   0  0  0  0  0  0  0  0  0  0  0  0
    0.0244    2.0848   -0.4739 C   0  0  0  0  0  0  0  0  0  0  0  0
   -0.8242    1.1877   -1.1912 C   0  0  0  0  0  0  0  0  0  0  0  0
   -0.1477   -0.0579   -1.0464 C   0  0  0  0  0  0  0  0  0  0  0  0
   -0.2790   -0.6012    0.2660 C   0  0  0  0  0  0  0  0  0  0  0  0
   -0.3190    0.5664    1.0847 C   0  0  0  0  0  0  0  0  0  0  0  0
   -0.4032   -2.0518    0.7172 C   0  0  0  0  0  0  0  0  0  0  0  0
    0.4496   -2.3585    1.8494 N   0  0  0  0  0  0  0  0  0  0  0  0
    1.0143   -2.2720    3.1652 C   0  0  0  0  0  0  0  0  0  0  0  0
    0.9982   -3.5730    2.7787 N   0  0  0  0  0  0  0  0  0  0  0  0
    0.9281   -4.4710    3.7949 C   0  0  0  0  0  0  0  0  0  0  0  0
    1.1003   -6.1943    3.5428 Cl  0  0  0  0  0  0  0  0  0  0  0  0
    0.0811   -4.0856    4.8333 C   0  0  0  0  0  0  0  0  0  0  0  0
   -0.0863   -5.1708    6.4194 Br  0  0  0  0  0  0  0  0  0  0  0  0
    0.3095   -2.7696    5.2484 C   0  0  0  0  0  0  0  0  0  0  0  0
    1.1003   -1.9550    4.4852 N   0  0  0  0  0  0  0  0  0  0  0  0
   -0.8389   -3.3939    5.8741 N   0  0  0  0  0  0  0  0  0  0  0  0
   -2.1976   -3.3199    6.4041 C   0  0  0  0  0  0  0  0  0  0  0  0
   -2.9467   -2.0331    6.0443 C   0  0  0  0  0  0  0  0  0  0  0  0
   -2.4575   -0.6940    6.0920 C   0  0  0  0  0  0  0  0  0  0  0  0
   -2.7082    0.0921    4.9200 C   0  0  0  0  0  0  0  0  0  0  0  0
   -2.7409   -0.9127    3.9069 C   0  0  0  0  0  0  0  0  0  0  0  0
   -3.9292   -1.7071    3.9181 C   0  0  0  0  0  0  0  0  0  0  0  0
   -4.1659   -1.8747    5.3148 C   0  0  0  0  0  0  0  0  0  0  0  0
   -4.7284   -2.2344    2.7349 C   0  0  0  0  0  0  0  0  0  0  0  0
   -4.3710   -3.6121    2.3842 N   0  0  0  0  0  0  0  0  0  0  0  0
   -3.3097   -4.5369    2.0528 C   0  0  0  0  0  0  0  0  0  0  0  0
   -2.1595   -5.2232    1.8090 N   0  0  0  0  0  0  0  0  0  0  0  0
   -1.9499   -5.5292    0.5046 C   0  0  0  0  0  0  0  0  0  0  0  0
   -2.9442   -5.5950   -0.3965 N   0  0  0  0  0  0  0  0  0  0  0  0
   -4.1917   -5.3033   -0.0128 C   0  0  0  0  0  0  0  0  0  0  0  0
   -5.6234   -5.7239   -0.9072 Cl  0  0  0  0  0  0  0  0  0  0  0  0
   -4.3820   -4.5853    1.1625 C   0  0  0  0  0  0  0  0  0  0  0  0
   -5.9746   -4.8203    2.2200 Br  0  0  0  0  0  0  0  0  0  0  0  0
   -1.3383   -5.4415   -0.7966 N   0  0  0  0  0  0  0  0  0  0  0  0
   -0.7144   -5.0694   -2.0519 C   0  0  0  0  0  0  0  0  0  0  0  0
    0.8088   -5.2155   -2.0122 C   0  0  0  0  0  0  0  0  0  0  0  0
    1.6599   -5.0874   -3.1501 C   0  0  0  0  0  0  0  0  0  0  0  0
    2.1033   -3.7528   -3.3911 C   0  0  0  0  0  0  0  0  0  0  0  0
    2.2363   -3.2477   -2.0614 C   0  0  0  0  0  0  0  0  0  0  0  0
    2.8400   -4.2049   -1.1927 C   0  0  0  0  0  0  0  0  0  0  0  0
    1.7454   -5.0796   -0.9397 C   0  0  0  0  0  0  0  0  0  0  0  0
    4.3361   -4.4654   -0.9677 C   0  0  0  0  0  0  0  0  0  0  0  0
    5.1333   -3.2375   -1.1169 C   0  0  0  0  0  0  0  0  0  0  0  0
    5.3050   -3.5960    0.1513 N   0  0  0  0  0  0  0  0  0  0  0  0
    5.5589   -2.5994    1.0394 C   0  0  0  0  0  0  0  0  0  0  0  0
    6.1064   -2.9561    2.6744 Cl  0  0  0  0  0  0  0  0  0  0  0  0
    4.7717   -1.4614    0.8009 C   0  0  0  0  0  0  0  0  0  0  0  0
    5.3746    0.1066    1.7900 Br  0  0  0  0  0  0  0  0  0  0  0  0
    4.8620   -1.0730   -0.5483 C   0  0  0  0  0  0  0  0  0  0  0  0
    5.3624   -1.9428   -1.4773 N   0  0  0  0  0  0  0  0  0  0  0  0
    2.3088   -3.0934   -4.7477 C   0  0  0  0  0  0  0  0  0  0  0  0
    2.8781   -1.7798   -4.6397 N   0  0  0  0  0  0  0  0  0  0  0  0
    3.5696   -0.5171   -4.6788 C   0  0  0  0  0  0  0  0  0  0  0  0
    2.5165    0.1557   -4.4159 O   0  0  0  0  0  0  0  0  0  0  0  0
    4.3570    0.6461   -4.1893 C   0  0  0  0  0  0  0  0  0  0  0  0
    5.0264    1.6480   -3.5370 N   0  0  0  0  0  0  0  0  0  0  0  0
    4.1912    2.6514   -3.1645 C   0  0  0  0  0  0  0  0  0  0  0  0
    3.0278    3.2944   -2.4755 C   0  0  0  0  0  0  0  0  0  0  0  0
    3.4211    4.6679   -1.9165 C   0  0  0  0  0  0  0  0  0  0  0  0
    3.6763    5.8582   -2.6659 C   0  0  0  0  0  0  0  0  0  0  0  0
    2.6159    6.8158   -2.6495 C   0  0  0  0  0  0  0  0  0  0  0  0
    2.6183    7.1775   -1.2632 C   0  0  0  0  0  0  0  0  0  0  0  0
    2.2042    6.1276   -0.3896 C   0  0  0  0  0  0  0  0  0  0  0  0
    3.2693    5.2017   -0.5911 C   0  0  0  0  0  0  0  0  0  0  0  0
    0.8337    5.9178    0.2696 C   0  0  0  0  0  0  0  0  0  0  0  0
    0.9203    5.4099    1.6500 C   0  0  0  0  0  0  0  0  0  0  0  0
   -0.2468    6.0778    1.4656 N   0  0  0  0  0  0  0  0  0  0  0  0
   -1.2517    6.0360    2.3734 C   0  0  0  0  0  0  0  0  0  0  0  0
   -2.7464    6.9312    2.1189 Cl  0  0  0  0  0  0  0  0  0  0  0  0
   -1.3907    4.7809    2.9859 C   0  0  0  0  0  0  0  0  0  0  0  0
   -2.3354    4.9506    4.6870 Br  0  0  0  0  0  0  0  0  0  0  0  0
   -0.1341    4.2556    3.3305 C   0  0  0  0  0  0  0  0  0  0  0  0
    1.0179    4.8170    2.8679 N   0  0  0  0  0  0  0  0  0  0  0  0
   -1.2995    3.4783    3.8187 C   0  0  0  0  0  0  0  0  0  0  0  0
   -1.8260    3.6591    2.6696 O   0  0  0  0  0  0  0  0  0  0  0  0
   -2.1052    2.3459    4.1975 N   0  0  0  0  0  0  0  0  0  0  0  0
   -3.1834    1.5363    4.7748 C   0  0  0  0  0  0  0  0  0  0  0  0
    1.5873    7.0976   -3.7599 C   0  0  0  0  0  0  0  0  0  0  0  0
    0.7330    5.9600   -4.0650 C   0  0  0  0  0  0  0  0  0  0  0  0
   -0.1108    6.9050   -3.6462 N   0  0  0  0  0  0  0  0  0  0  0  0
   -1.4400    6.6293   -3.6117 C   0  0  0  0  0  0  0  0  0  0  0  0
   -2.6085    7.8102   -3.0262 Cl  0  0  0  0  0  0  0  0  0  0  0  0
   -1.7518    5.2855   -3.3494 C   0  0  0  0  0  0  0  0  0  0  0  0
   -3.5606    4.8081   -3.9095 Br  0  0  0  0  0  0  0  0  0  0  0  0
   -0.9094    4.4406   -4.0882 C   0  0  0  0  0  0  0  0  0  0  0  0
    0.1891    4.9155   -4.7363 N   0  0  0  0  0  0  0  0  0  0  0  0
   -1.9819    3.7472   -3.3305 C   0  0  0  0  0  0  0  0  0  0  0  0
   -1.7220    4.5347   -2.3592 O   0  0  0  0  0  0  0  0  0  0  0  0
   -2.3346    2.6016   -2.5324 N   0  0  0  0  0  0  0  0  0  0  0  0
   -2.2738    1.4463   -1.6283 C   0  0  0  0  0  0  0  0  0  0  0  0
    3.3626    3.0983   -4.1414 N   0  0  0  0  0  0  0  0  0  0  0  0
    3.2114    2.3477   -5.2631 C   0  0  0  0  0  0  0  0  0  0  0  0
    2.7473    3.0041   -6.8025 Cl  0  0  0  0  0  0  0  0  0  0  0  0
    3.2530    0.9686   -5.0033 C   0  0  0  0  0  0  0  0  0  0  0  0
    3.5382   -0.0776   -6.6249 Br  0  0  0  0  0  0  0  0  0  0  0  0
    2.4087   -0.1233    1.1488 H   0  0  0  0  0  0  0  0  0  0  0  0
    2.5300    2.6323    0.9852 H   0  0  0  0  0  0  0  0  0  0  0  0
    2.0905    1.6941    2.3343 H   0  0  0  0  0  0  0  0  0  0  0  0
    0.3160    3.0515   -0.8957 H   0  0  0  0  0  0  0  0  0  0  0  0
    0.3615   -0.5454   -1.8749 H   0  0  0  0  0  0  0  0  0  0  0  0
   -0.9898    0.7165    1.9275 H   0  0  0  0  0  0  0  0  0  0  0  0
   -0.0897   -2.7750   -0.0282 H   0  0  0  0  0  0  0  0  0  0  0  0
   -1.4753   -2.3137    0.9131 H   0  0  0  0  0  0  0  0  0  0  0  0
    0.6719   -3.3381    1.6446 H   0  0  0  0  0  0  0  0  0  0  0  0
   -1.0946   -3.8464    4.9531 H   0  0  0  0  0  0  0  0  0  0  0  0
   -2.6650   -4.2185    6.0048 H   0  0  0  0  0  0  0  0  0  0  0  0
   -2.2127   -3.4766    7.5140 H   0  0  0  0  0  0  0  0  0  0  0  0
   -1.9624   -0.2784    6.9727 H   0  0  0  0  0  0  0  0  0  0  0  0
   -1.9087   -1.0704    3.2183 H   0  0  0  0  0  0  0  0  0  0  0  0
   -5.1431   -1.9605    5.7792 H   0  0  0  0  0  0  0  0  0  0  0  0
   -4.6649   -1.5599    1.8437 H   0  0  0  0  0  0  0  0  0  0  0  0
   -5.8137   -2.2231    2.9020 H   0  0  0  0  0  0  0  0  0  0  0  0
   -4.4860   -3.4018    1.3536 H   0  0  0  0  0  0  0  0  0  0  0  0
   -2.2928   -5.4177   -1.2459 H   0  0  0  0  0  0  0  0  0  0  0  0
   -1.0488   -4.0477   -2.2498 H   0  0  0  0  0  0  0  0  0  0  0  0
   -1.1627   -5.8347   -2.7362 H   0  0  0  0  0  0  0  0  0  0  0  0
    1.9513   -5.9534   -3.7533 H   0  0  0  0  0  0  0  0  0  0  0  0
    2.0688   -2.2138   -1.7725 H   0  0  0  0  0  0  0  0  0  0  0  0
    1.5925   -5.5745    0.0230 H   0  0  0  0  0  0  0  0  0  0  0  0
    4.7532   -5.1889   -1.6782 H   0  0  0  0  0  0  0  0  0  0  0  0
    4.5487   -4.8233    0.0445 H   0  0  0  0  0  0  0  0  0  0  0  0
    1.3370   -2.9184   -5.2756 H   0  0  0  0  0  0  0  0  0  0  0  0
    3.0387   -3.6449   -5.3863 H   0  0  0  0  0  0  0  0  0  0  0  0
    1.9578   -1.3576   -4.3430 H   0  0  0  0  0  0  0  0  0  0  0  0
    2.1228    3.3147   -3.0879 H   0  0  0  0  0  0  0  0  0  0  0  0
    2.7783    2.5831   -1.6769 H   0  0  0  0  0  0  0  0  0  0  0  0
    4.5914    5.9997   -3.2520 H   0  0  0  0  0  0  0  0  0  0  0  0
    2.7661    8.2092   -0.9286 H   0  0  0  0  0  0  0  0  0  0  0  0
    3.8985    4.8471    0.2358 H   0  0  0  0  0  0  0  0  0  0  0  0
    0.3249    6.9024    0.4304 H   0  0  0  0  0  0  0  0  0  0  0  0
    0.1436    5.3556   -0.3597 H   0  0  0  0  0  0  0  0  0  0  0  0
   -2.4404    2.1304    3.2210 H   0  0  0  0  0  0  0  0  0  0  0  0
   -3.4212    2.0158    5.7334 H   0  0  0  0  0  0  0  0  0  0  0  0
   -4.1203    1.6524    4.2131 H   0  0  0  0  0  0  0  0  0  0  0  0
    2.1045    7.5152   -4.6662 H   0  0  0  0  0  0  0  0  0  0  0  0
    0.9190    7.9255   -3.5007 H   0  0  0  0  0  0  0  0  0  0  0  0
   -2.6909    3.2228   -1.7587 H   0  0  0  0  0  0  0  0  0  0  0  0
   -2.6658    0.6550   -2.2629 H   0  0  0  0  0  0  0  0  0  0  0  0
   -2.9651    1.5529   -0.7921 H   0  0  0  0  0  0  0  0  0  0  0  0
  1  2  2  0
  2  3  1  0
  3  4  1  0
  4  5  1  0
  5  6  2  0
  6  7  1  0
  7  8  2  0
  8  9  1  0
  9 10  2  0
  9 11  1  0
 11 12  1  0
 12 13  1  0
 13 14  1  0
 14 15  2  0
 15 16  1  0
 15 17  1  0
 17 18  1  0
 17 19  2  0
 19 20  1  0
 19 21  1  0
 21 22  1  0
 22 23  1  0
 23 24  1  0
 24 25  2  0
 25 26  1  0
 26 27  2  0
 27 28  1  0
 27 29  1  0
 29 30  1  0
 30 31  1  0
 31 32  1  0
 32 33  2  0
 33 34  1  0
 34 35  2  0
 35 36  1  0
 35 37  1  0
 37 38  1  0
 33 39  1  0
 39 40  1  0
 40 41  1  0
 41 42  1  0
 42 43  2  0
 43 44  1  0
 44 45  2  0
 45 46  1  0
 45 47  1  0
 47 48  1  0
 48 49  1  0
 49 50  2  0
 50 51  1  0
 50 52  1  0
 52 53  1  0
 52 54  2  0
 54 55  1  0
 43 56  1  0
 56 57  1  0
 57 58  1  0
 58 59  2  0
 58 60  1  0
 60 61  2  0
 61 62  1  0
 62 63  1  0
 63 64  1  0
 64 65  2  0
 65 66  1  0
 66 67  2  0
 67 68  1  0
 68 69  2  0
 68 70  1  0
 70 71  1  0
 71 72  1  0
 72 73  2  0
 73 74  1  0
 73 75  1  0
 75 76  1  0
 75 77  2  0
 77 78  1  0
 77 79  1  0
 79 80  2  0
 79 81  1  0
 81 82  1  0
 66 83  1  0
 83 84  1  0
 84 85  2  0
 85 86  1  0
 86 87  1  0
 86 88  2  0
 88 89  1  0
 88 90  1  0
 90 91  2  0
 90 92  1  0
 92 93  2  0
 92 94  1  0
 94 95  1  0
 62 96  2  0
 96 97  1  0
 97 98  1  0
 97 99  2  0
 99100  1  0
 54  2  1  0
 99 60  1  0
 10  5  1  0
 20 13  2  0
 28 23  2  0
 37 31  2  0
 46 41  2  0
 55 48  2  0
 69 64  1  0
 78 71  2  0
 91 84  1  0
 95  7  1  0
 82 25  1  0
  3101  1  0
  4102  1  0
  4103  1  0
  6104  1  0
  8105  1  0
 10106  1  0
 11107  1  0
 11108  1  0
 12109  1  0
 21110  1  0
 22111  1  0
 22112  1  0
 24113  1  0
 26114  1  0
 28115  1  0
 29116  1  0
 29117  1  0
 30118  1  0
 39119  1  0
 40120  1  0
 40121  1  0
 42122  1  0
 44123  1  0
 46124  1  0
 47125  1  0
 47126  1  0
 56127  1  0
 56128  1  0
 57129  1  0
 63130  1  0
 63131  1  0
 65132  1  0
 67133  1  0
 69134  1  0
 70135  1  0
 70136  1  0
 81137  1  0
 82138  1  0
 82139  1  0
 83140  1  0
 83141  1  0
 94142  1  0
 95143  1  0
 95144  1  0
M  END
