
     RDKit          3D

174192  0  0  0  0  0  0  0  0999 V2000
   -6.6003   -1.4101   -4.5245 C   0  0  0  0  0  0  0  0  0  0  0  0
   -7.0384   -0.2413   -3.8474 C   0  0  0  0  0  0  0  0  0  0  0  0
   -6.8254    0.6616   -4.9287 C   0  0  0  0  0  0  0  0  0  0  0  0
   -5.4558    0.9225   -5.2033 C   0  0  0  0  0  0  0  0  0  0  0  0
   -5.1753   -0.3626   -5.7442 C   0  0  0  0  0  0  0  0  0  0  0  0
   -5.2109   -1.4690   -4.8456 C   0  0  0  0  0  0  0  0  0  0  0  0
   -4.0902   -2.0803   -4.1228 C   0  0  0  0  0  0  0  0  0  0  0  0
   -3.5611   -3.2979   -4.7522 N   0  0  0  0  0  0  0  0  0  0  0  0
   -2.9818   -4.1245   -5.7309 C   0  0  0  0  0  0  0  0  0  0  0  0
   -4.2030   -4.6991   -5.3542 C   0  0  0  0  0  0  0  0  0  0  0  0
   -4.0756   -6.0621   -5.0405 C   0  0  0  0  0  0  0  0  0  0  0  0
   -2.7799   -6.5972   -4.9654 C   0  0  0  0  0  0  0  0  0  0  0  0
   -1.8384   -7.1623   -3.5970 S   0  0  0  0  0  0  0  0  0  0  0  0
   -0.3562   -6.6021   -4.3183 C   0  0  0  0  0  0  0  0  0  0  0  0
   -0.6719   -6.9176   -5.6389 C   0  0  0  0  0  0  0  0  0  0  0  0
   -1.7860   -6.0994   -5.8465 C   0  0  0  0  0  0  0  0  0  0  0  0
   -2.0738   -4.8619   -6.4327 C   0  0  0  0  0  0  0  0  0  0  0  0
    0.0361   -6.4155   -2.9943 N   0  0  0  0  0  0  0  0  0  0  0  0
    0.8391   -6.3209   -1.8064 C   0  0  0  0  0  0  0  0  0  0  0  0
    0.6524   -5.0465   -1.0415 C   0  0  0  0  0  0  0  0  0  0  0  0
    1.4257   -3.8512   -1.1395 C   0  0  0  0  0  0  0  0  0  0  0  0
    2.5769   -3.7577   -0.2988 C   0  0  0  0  0  0  0  0  0  0  0  0
    1.8825   -3.7197    0.9490 C   0  0  0  0  0  0  0  0  0  0  0  0
    1.1791   -4.9066    1.3106 C   0  0  0  0  0  0  0  0  0  0  0  0
    0.1867   -4.8181    0.2894 C   0  0  0  0  0  0  0  0  0  0  0  0
    1.6769   -6.0861    2.0835 C   0  0  0  0  0  0  0  0  0  0  0  0
    1.2936   -6.0947    3.4723 N   0  0  0  0  0  0  0  0  0  0  0  0
    0.7046   -6.1911    4.7510 C   0  0  0  0  0  0  0  0  0  0  0  0
    0.1024   -6.3313    6.0020 C   0  0  0  0  0  0  0  0  0  0  0  0
    0.6100   -5.2192    6.6873 C   0  0  0  0  0  0  0  0  0  0  0  0
    0.2090   -3.9257    7.0358 C   0  0  0  0  0  0  0  0  0  0  0  0
    1.1748   -2.9766    6.8761 C   0  0  0  0  0  0  0  0  0  0  0  0
    2.4308   -3.1695    7.4567 C   0  0  0  0  0  0  0  0  0  0  0  0
    2.7886   -4.5258    7.5118 C   0  0  0  0  0  0  0  0  0  0  0  0
    2.0081   -5.4381    6.7809 C   0  0  0  0  0  0  0  0  0  0  0  0
    2.3522   -6.3107    5.2933 S   0  0  0  0  0  0  0  0  0  0  0  0
    2.0879   -2.0784    6.2616 N   0  0  0  0  0  0  0  0  0  0  0  0
    2.8719   -1.1295    5.4685 C   0  0  0  0  0  0  0  0  0  0  0  0
    2.1790    0.0484    4.9265 C   0  0  0  0  0  0  0  0  0  0  0  0
    1.8068    1.2265    5.6405 C   0  0  0  0  0  0  0  0  0  0  0  0
    0.9880    2.1349    4.8723 C   0  0  0  0  0  0  0  0  0  0  0  0
   -0.1572    1.2656    4.9285 C   0  0  0  0  0  0  0  0  0  0  0  0
   -0.0495    0.0219    4.2347 C   0  0  0  0  0  0  0  0  0  0  0  0
    1.3156    0.0462    3.7755 C   0  0  0  0  0  0  0  0  0  0  0  0
   -0.9410   -1.1509    4.3558 C   0  0  0  0  0  0  0  0  0  0  0  0
   -2.0944   -1.1448    3.4495 N   0  0  0  0  0  0  0  0  0  0  0  0
   -3.4477   -0.9464    3.0041 C   0  0  0  0  0  0  0  0  0  0  0  0
   -4.8000   -0.7501    2.7465 C   0  0  0  0  0  0  0  0  0  0  0  0
   -4.5820   -0.9225    1.3731 C   0  0  0  0  0  0  0  0  0  0  0  0
   -4.7075   -1.8212    0.3058 C   0  0  0  0  0  0  0  0  0  0  0  0
   -5.2994   -1.0598   -0.6090 C   0  0  0  0  0  0  0  0  0  0  0  0
   -4.8014    0.1217   -1.1572 C   0  0  0  0  0  0  0  0  0  0  0  0
   -3.9703    0.8078   -0.2761 C   0  0  0  0  0  0  0  0  0  0  0  0
   -3.9824    0.3184    1.0273 C   0  0  0  0  0  0  0  0  0  0  0  0
   -2.7733    0.4714    2.2693 S   0  0  0  0  0  0  0  0  0  0  0  0
   -6.2223   -0.4468   -1.4910 N   0  0  0  0  0  0  0  0  0  0  0  0
   -7.2560   -0.0200   -2.4192 C   0  0  0  0  0  0  0  0  0  0  0  0
    1.3400    3.2049    3.8433 C   0  0  0  0  0  0  0  0  0  0  0  0
    0.8792    4.5165    4.2092 N   0  0  0  0  0  0  0  0  0  0  0  0
    0.2529    5.7695    4.2702 C   0  0  0  0  0  0  0  0  0  0  0  0
    1.3741    5.8143    5.1077 C   0  0  0  0  0  0  0  0  0  0  0  0
    2.1749    6.9474    4.8925 C   0  0  0  0  0  0  0  0  0  0  0  0
    1.9103    7.7247    3.7492 C   0  0  0  0  0  0  0  0  0  0  0  0
    2.8072    7.8762    2.2417 S   0  0  0  0  0  0  0  0  0  0  0  0
    1.3652    7.9629    1.2746 C   0  0  0  0  0  0  0  0  0  0  0  0
    0.6005    8.7022    2.1796 C   0  0  0  0  0  0  0  0  0  0  0  0
    0.5687    7.8726    3.3135 C   0  0  0  0  0  0  0  0  0  0  0  0
   -0.3130    6.9852    3.9420 C   0  0  0  0  0  0  0  0  0  0  0  0
    2.1094    7.1014    0.4049 N   0  0  0  0  0  0  0  0  0  0  0  0
    2.7850    6.4338   -0.6611 C   0  0  0  0  0  0  0  0  0  0  0  0
    1.9971    5.7745   -1.7238 C   0  0  0  0  0  0  0  0  0  0  0  0
    0.6054    5.8540   -2.0197 C   0  0  0  0  0  0  0  0  0  0  0  0
   -0.2208    4.8693   -1.4040 C   0  0  0  0  0  0  0  0  0  0  0  0
    0.3022    3.7404   -2.1056 C   0  0  0  0  0  0  0  0  0  0  0  0
    1.6347    3.3660   -1.7798 C   0  0  0  0  0  0  0  0  0  0  0  0
    2.2578    4.5149   -2.3460 C   0  0  0  0  0  0  0  0  0  0  0  0
    2.1462    2.5177   -0.6536 C   0  0  0  0  0  0  0  0  0  0  0  0
    3.2494    1.6342   -1.0245 N   0  0  0  0  0  0  0  0  0  0  0  0
    4.5992    1.5279   -1.4956 C   0  0  0  0  0  0  0  0  0  0  0  0
    5.9091    1.4149   -1.9608 C   0  0  0  0  0  0  0  0  0  0  0  0
    6.1813    0.0742   -1.6660 C   0  0  0  0  0  0  0  0  0  0  0  0
    6.2319   -1.1635   -2.3163 C   0  0  0  0  0  0  0  0  0  0  0  0
    5.7109   -2.1844   -1.5848 C   0  0  0  0  0  0  0  0  0  0  0  0
    6.2365   -2.4158   -0.3065 C   0  0  0  0  0  0  0  0  0  0  0  0
    6.5468   -1.2194    0.3588 C   0  0  0  0  0  0  0  0  0  0  0  0
    6.1633   -0.0142   -0.2509 C   0  0  0  0  0  0  0  0  0  0  0  0
    4.9283    1.1578    0.1722 S   0  0  0  0  0  0  0  0  0  0  0  0
    4.8636   -3.0963   -0.9257 N   0  0  0  0  0  0  0  0  0  0  0  0
    3.9744   -4.2098   -0.5814 C   0  0  0  0  0  0  0  0  0  0  0  0
   -0.9498    4.9278   -0.1134 C   0  0  0  0  0  0  0  0  0  0  0  0
   -2.3625    5.2404   -0.2515 N   0  0  0  0  0  0  0  0  0  0  0  0
   -3.7163    5.5635   -0.2229 C   0  0  0  0  0  0  0  0  0  0  0  0
   -5.0674    5.8867   -0.1296 C   0  0  0  0  0  0  0  0  0  0  0  0
   -5.5881    5.3243   -1.2987 C   0  0  0  0  0  0  0  0  0  0  0  0
   -6.2822    4.1731   -1.6855 C   0  0  0  0  0  0  0  0  0  0  0  0
   -5.8122    3.6053   -2.8307 C   0  0  0  0  0  0  0  0  0  0  0  0
   -5.7299    4.4011   -3.9792 C   0  0  0  0  0  0  0  0  0  0  0  0
   -5.3675    5.7248   -3.6837 C   0  0  0  0  0  0  0  0  0  0  0  0
   -4.9654    6.0171   -2.3688 C   0  0  0  0  0  0  0  0  0  0  0  0
   -3.3788    6.3923   -1.7116 S   0  0  0  0  0  0  0  0  0  0  0  0
   -4.9866    2.9335   -3.7884 N   0  0  0  0  0  0  0  0  0  0  0  0
   -4.4730    1.8869   -4.6533 C   0  0  0  0  0  0  0  0  0  0  0  0
   -7.2711   -2.2696   -4.7396 H   0  0  0  0  0  0  0  0  0  0  0  0
   -7.6413    1.2416   -5.4043 H   0  0  0  0  0  0  0  0  0  0  0  0
   -4.8755   -0.4953   -6.8089 H   0  0  0  0  0  0  0  0  0  0  0  0
   -4.2603   -2.4837   -3.0923 H   0  0  0  0  0  0  0  0  0  0  0  0
   -3.2016   -1.4564   -3.8414 H   0  0  0  0  0  0  0  0  0  0  0  0
   -4.4579   -3.8411   -4.6979 H   0  0  0  0  0  0  0  0  0  0  0  0
   -4.9132   -4.0640   -4.8203 H   0  0  0  0  0  0  0  0  0  0  0  0
   -4.8206   -6.5604   -4.4168 H   0  0  0  0  0  0  0  0  0  0  0  0
   -0.1659   -7.6474   -6.2862 H   0  0  0  0  0  0  0  0  0  0  0  0
   -1.7858   -4.5032   -7.4235 H   0  0  0  0  0  0  0  0  0  0  0  0
   -0.8330   -6.8033   -2.5576 H   0  0  0  0  0  0  0  0  0  0  0  0
    1.8935   -6.6298   -2.0390 H   0  0  0  0  0  0  0  0  0  0  0  0
    0.5782   -7.2729   -1.2755 H   0  0  0  0  0  0  0  0  0  0  0  0
    1.2062   -3.0756   -1.9035 H   0  0  0  0  0  0  0  0  0  0  0  0
    1.9871   -2.8602    1.6421 H   0  0  0  0  0  0  0  0  0  0  0  0
   -0.8947   -4.7530    0.5222 H   0  0  0  0  0  0  0  0  0  0  0  0
    1.3792   -7.1032    1.7177 H   0  0  0  0  0  0  0  0  0  0  0  0
    2.7776   -6.2989    2.0615 H   0  0  0  0  0  0  0  0  0  0  0  0
    2.2748   -6.1106    3.8561 H   0  0  0  0  0  0  0  0  0  0  0  0
   -0.5628   -7.1449    6.3118 H   0  0  0  0  0  0  0  0  0  0  0  0
   -0.7354   -3.5945    7.4571 H   0  0  0  0  0  0  0  0  0  0  0  0
    3.1710   -2.3760    7.3335 H   0  0  0  0  0  0  0  0  0  0  0  0
    3.8392   -4.8006    7.6238 H   0  0  0  0  0  0  0  0  0  0  0  0
    2.8161   -2.2164    6.9824 H   0  0  0  0  0  0  0  0  0  0  0  0
    3.8868   -1.0051    5.9299 H   0  0  0  0  0  0  0  0  0  0  0  0
    3.3075   -1.8531    4.7203 H   0  0  0  0  0  0  0  0  0  0  0  0
    2.2733    1.6297    6.5619 H   0  0  0  0  0  0  0  0  0  0  0  0
   -1.1072    1.6995    5.3079 H   0  0  0  0  0  0  0  0  0  0  0  0
    1.6232    0.1171    2.7219 H   0  0  0  0  0  0  0  0  0  0  0  0
   -0.5289   -2.1440    4.0255 H   0  0  0  0  0  0  0  0  0  0  0  0
   -1.2138   -1.5482    5.3659 H   0  0  0  0  0  0  0  0  0  0  0  0
   -1.7311   -0.2516    3.0210 H   0  0  0  0  0  0  0  0  0  0  0  0
   -5.6537   -0.8302    3.4021 H   0  0  0  0  0  0  0  0  0  0  0  0
   -4.5304   -2.8550    0.2022 H   0  0  0  0  0  0  0  0  0  0  0  0
   -5.3419    0.6365   -1.9182 H   0  0  0  0  0  0  0  0  0  0  0  0
   -3.6273    1.8020   -0.4677 H   0  0  0  0  0  0  0  0  0  0  0  0
   -5.5055    0.1429   -1.9913 H   0  0  0  0  0  0  0  0  0  0  0  0
   -7.3574    1.0316   -2.0480 H   0  0  0  0  0  0  0  0  0  0  0  0
   -8.2254   -0.4039   -2.0012 H   0  0  0  0  0  0  0  0  0  0  0  0
    2.4090    3.3629    3.6583 H   0  0  0  0  0  0  0  0  0  0  0  0
    1.0585    2.9649    2.7849 H   0  0  0  0  0  0  0  0  0  0  0  0
    1.5683    4.7092    4.9537 H   0  0  0  0  0  0  0  0  0  0  0  0
    1.7993    4.8381    5.3590 H   0  0  0  0  0  0  0  0  0  0  0  0
    3.2175    6.9297    5.2166 H   0  0  0  0  0  0  0  0  0  0  0  0
    0.2068    9.7120    2.0105 H   0  0  0  0  0  0  0  0  0  0  0  0
   -1.3671    7.1298    4.1786 H   0  0  0  0  0  0  0  0  0  0  0  0
    3.0180    7.4073    0.8397 H   0  0  0  0  0  0  0  0  0  0  0  0
    3.4824    7.2250   -1.0549 H   0  0  0  0  0  0  0  0  0  0  0  0
    3.4838    5.8079   -0.0466 H   0  0  0  0  0  0  0  0  0  0  0  0
    0.1893    6.6824   -2.6295 H   0  0  0  0  0  0  0  0  0  0  0  0
   -0.3363    3.1159   -2.7650 H   0  0  0  0  0  0  0  0  0  0  0  0
    2.9687    4.4262   -3.1965 H   0  0  0  0  0  0  0  0  0  0  0  0
    2.3552    3.0486    0.3113 H   0  0  0  0  0  0  0  0  0  0  0  0
    1.4749    1.7360   -0.2684 H   0  0  0  0  0  0  0  0  0  0  0  0
    3.5455    1.5886   -0.0139 H   0  0  0  0  0  0  0  0  0  0  0  0
    6.5299    2.2034   -2.4067 H   0  0  0  0  0  0  0  0  0  0  0  0
    6.6528   -1.3981   -3.2958 H   0  0  0  0  0  0  0  0  0  0  0  0
    5.8764   -3.2934    0.2344 H   0  0  0  0  0  0  0  0  0  0  0  0
    6.5944   -1.1909    1.4492 H   0  0  0  0  0  0  0  0  0  0  0  0
    5.4671   -3.1550   -0.0641 H   0  0  0  0  0  0  0  0  0  0  0  0
    4.1286   -4.9598   -1.4004 H   0  0  0  0  0  0  0  0  0  0  0  0
    4.5182   -4.7809    0.1895 H   0  0  0  0  0  0  0  0  0  0  0  0
   -0.5870    5.6345    0.6757 H   0  0  0  0  0  0  0  0  0  0  0  0
   -0.9412    4.0236    0.5455 H   0  0  0  0  0  0  0  0  0  0  0  0
   -2.1849    5.7289   -1.1682 H   0  0  0  0  0  0  0  0  0  0  0  0
   -5.5197    6.4867    0.6686 H   0  0  0  0  0  0  0  0  0  0  0  0
   -7.1539    3.7173   -1.2116 H   0  0  0  0  0  0  0  0  0  0  0  0
   -5.4276    3.9163   -4.9098 H   0  0  0  0  0  0  0  0  0  0  0  0
   -4.9279    6.3589   -4.4562 H   0  0  0  0  0  0  0  0  0  0  0  0
   -5.3278    3.5754   -4.5522 H   0  0  0  0  0  0  0  0  0  0  0  0
   -3.9943    2.5470   -5.4265 H   0  0  0  0  0  0  0  0  0  0  0  0
   -3.6338    1.5276   -4.0429 H   0  0  0  0  0  0  0  0  0  0  0  0
  1  2  2  0
  2  3  1  0
  3  4  2  0
  4  5  1  0
  5  6  2  0
  6  7  1  0
  7  8  1  0
  8  9  1  0
  9 10  2  0
 10 11  1  0
 11 12  2  0
 12 13  1  0
 13 14  1  0
 14 15  2  0
 15 16  1  0
 16 17  2  0
 14 18  1  0
 18 19  1  0
 19 20  1  0
 20 21  1  0
 21 22  2  0
 22 23  1  0
 23 24  2  0
 24 25  1  0
 24 26  1  0
 26 27  1  0
 27 28  1  0
 28 29  2  0
 29 30  1  0
 30 31  2  0
 31 32  1  0
 32 33  2  0
 33 34  1  0
 34 35  2  0
 35 36  1  0
 32 37  1  0
 37 38  1  0
 38 39  1  0
 39 40  1  0
 40 41  2  0
 41 42  1  0
 42 43  2  0
 43 44  1  0
 43 45  1  0
 45 46  1  0
 46 47  1  0
 47 48  2  0
 48 49  1  0
 49 50  2  0
 50 51  1  0
 51 52  2  0
 52 53  1  0
 53 54  2  0
 54 55  1  0
 51 56  1  0
 56 57  1  0
 41 58  1  0
 58 59  1  0
 59 60  1  0
 60 61  2  0
 61 62  1  0
 62 63  2  0
 63 64  1  0
 64 65  1  0
 65 66  2  0
 66 67  1  0
 67 68  2  0
 65 69  1  0
 69 70  1  0
 70 71  1  0
 71 72  1  0
 72 73  2  0
 73 74  1  0
 74 75  2  0
 75 76  1  0
 75 77  1  0
 77 78  1  0
 78 79  1  0
 79 80  2  0
 80 81  1  0
 81 82  2  0
 82 83  1  0
 83 84  2  0
 84 85  1  0
 85 86  2  0
 86 87  1  0
 83 88  1  0
 88 89  1  0
 73 90  1  0
 90 91  1  0
 91 92  1  0
 92 93  2  0
 93 94  1  0
 94 95  2  0
 95 96  1  0
 96 97  2  0
 97 98  1  0
 98 99  2  0
 99100  1  0
 96101  1  0
101102  1  0
  6  1  1  0
 17  9  1  0
 25 20  2  0
 36 28  1  0
 44 39  2  0
 55 47  1  0
 68 60  1  0
 76 71  2  0
 87 79  1  0
100 92  1  0
 57  2  1  0
 67 63  1  0
 86 81  1  0
 99 94  1  0
102  4  1  0
 16 12  1  0
 89 22  1  0
 35 30  1  0
 54 49  1  0
  1103  1  0
  3104  1  0
  5105  1  0
  7106  1  0
  7107  1  0
  8108  1  0
 10109  1  0
 11110  1  0
 15111  1  0
 17112  1  0
 18113  1  0
 19114  1  0
 19115  1  0
 21116  1  0
 23117  1  0
 25118  1  0
 26119  1  0
 26120  1  0
 27121  1  0
 29122  1  0
 31123  1  0
 33124  1  0
 34125  1  0
 37126  1  0
 38127  1  0
 38128  1  0
 40129  1  0
 42130  1  0
 44131  1  0
 45132  1  0
 45133  1  0
 46134  1  0
 48135  1  0
 50136  1  0
 52137  1  0
 53138  1  0
 56139  1  0
 57140  1  0
 57141  1  0
 58142  1  0
 58143  1  0
 59144  1  0
 61145  1  0
 62146  1  0
 66147  1  0
 68148  1  0
 69149  1  0
 70150  1  0
 70151  1  0
 72152  1  0
 74153  1  0
 76154  1  0
 77155  1  0
 77156  1  0
 78157  1  0
 80158  1  0
 82159  1  0
 84160  1  0
 85161  1  0
 88162  1  0
 89163  1  0
 89164  1  0
 90165  1  0
 90166  1  0
 91167  1  0
 93168  1  0
 95169  1  0
 97170  1  0
 98171  1  0
101172  1  0
102173  1  0
102174  1  0
M  END
