
     RDKit          3D

192210  0  0  0  0  0  0  0  0999 V2000
   -1.5222   -7.3398   -3.6474 C   0  0  0  0  0  0  0  0  0  0  0  0
   -2.7458   -7.1680   -3.0126 C   0  0  0  0  0  0  0  0  0  0  0  0
   -3.2797   -5.8853   -2.9777 C   0  0  0  0  0  0  0  0  0  0  0  0
   -4.6351   -5.8188   -2.7243 C   0  0  0  0  0  0  0  0  0  0  0  0
   -5.1289   -4.5443   -2.4813 C   0  0  0  0  0  0  0  0  0  0  0  0
   -4.4497   -3.4695   -3.0477 C   0  0  0  0  0  0  0  0  0  0  0  0
   -3.4058   -3.7786   -3.9150 C   0  0  0  0  0  0  0  0  0  0  0  0
   -2.5480   -4.7812   -3.4427 C   0  0  0  0  0  0  0  0  0  0  0  0
   -1.1782   -5.0382   -3.1978 C   0  0  0  0  0  0  0  0  0  0  0  0
   -0.7525   -6.2255   -3.6984 N   0  0  0  0  0  0  0  0  0  0  0  0
    0.2575   -5.0790   -3.3080 N   0  0  0  0  0  0  0  0  0  0  0  0
    1.6988   -5.0566   -3.5727 C   0  0  0  0  0  0  0  0  0  0  0  0
    2.4265   -4.2580   -2.4953 C   0  0  0  0  0  0  0  0  0  0  0  0
    2.8289   -4.7018   -1.1977 C   0  0  0  0  0  0  0  0  0  0  0  0
    4.0385   -4.1264   -0.6894 C   0  0  0  0  0  0  0  0  0  0  0  0
    4.8653   -4.2045   -1.8485 C   0  0  0  0  0  0  0  0  0  0  0  0
    4.5600   -3.1884   -2.8020 C   0  0  0  0  0  0  0  0  0  0  0  0
    3.1487   -3.0300   -2.6307 C   0  0  0  0  0  0  0  0  0  0  0  0
    5.4803   -2.5034   -3.8089 C   0  0  0  0  0  0  0  0  0  0  0  0
    5.7019   -3.2835   -4.9837 N   0  0  0  0  0  0  0  0  0  0  0  0
    5.5620   -2.5675   -6.1610 O   0  0  0  0  0  0  0  0  0  0  0  0
    4.8568   -2.1924   -7.3132 C   0  0  0  0  0  0  0  0  0  0  0  0
    5.4607   -1.0916   -6.7164 C   0  0  0  0  0  0  0  0  0  0  0  0
    4.8964    0.1611   -6.9307 C   0  0  0  0  0  0  0  0  0  0  0  0
    3.5470    0.1658   -7.2660 C   0  0  0  0  0  0  0  0  0  0  0  0
    2.8397    1.3327   -7.0035 C   0  0  0  0  0  0  0  0  0  0  0  0
    1.4554    1.3181   -6.9585 C   0  0  0  0  0  0  0  0  0  0  0  0
    0.8493    0.1136   -7.0904 N   0  0  0  0  0  0  0  0  0  0  0  0
    1.5847   -0.9993   -7.0848 C   0  0  0  0  0  0  0  0  0  0  0  0
    0.3522   -1.2747   -6.3985 N   0  0  0  0  0  0  0  0  0  0  0  0
   -0.5815   -1.5604   -5.3110 C   0  0  0  0  0  0  0  0  0  0  0  0
   -0.5843   -0.3994   -4.3114 C   0  0  0  0  0  0  0  0  0  0  0  0
    0.0980   -0.2917   -3.0668 C   0  0  0  0  0  0  0  0  0  0  0  0
   -0.7084   -0.6837   -1.9496 C   0  0  0  0  0  0  0  0  0  0  0  0
   -2.0054   -0.2415   -2.3615 C   0  0  0  0  0  0  0  0  0  0  0  0
   -2.0209    1.0395   -2.9983 C   0  0  0  0  0  0  0  0  0  0  0  0
   -1.4287    0.7508   -4.2676 C   0  0  0  0  0  0  0  0  0  0  0  0
   -2.2082    2.3839   -2.2904 C   0  0  0  0  0  0  0  0  0  0  0  0
   -1.1549    2.6983   -1.3635 N   0  0  0  0  0  0  0  0  0  0  0  0
   -0.0524    2.6803   -0.4419 C   0  0  0  0  0  0  0  0  0  0  0  0
   -1.2177    2.6412    0.2511 N   0  0  0  0  0  0  0  0  0  0  0  0
   -1.2660    2.2870    1.5582 C   0  0  0  0  0  0  0  0  0  0  0  0
   -0.0957    1.9312    2.2193 C   0  0  0  0  0  0  0  0  0  0  0  0
    1.0641    2.0870    1.4650 C   0  0  0  0  0  0  0  0  0  0  0  0
    2.1548    1.2664    1.7439 C   0  0  0  0  0  0  0  0  0  0  0  0
    3.3549    1.7361    1.2204 C   0  0  0  0  0  0  0  0  0  0  0  0
    3.4079    3.0304    0.7171 C   0  0  0  0  0  0  0  0  0  0  0  0
    2.2614    3.7024    0.3027 C   0  0  0  0  0  0  0  0  0  0  0  0
    1.0822    2.9459    0.3522 C   0  0  0  0  0  0  0  0  0  0  0  0
    4.5130    2.8281    1.5621 O   0  0  0  0  0  0  0  0  0  0  0  0
    5.2166    2.8788    2.7597 N   0  0  0  0  0  0  0  0  0  0  0  0
    5.4100    4.2346    3.1799 C   0  0  0  0  0  0  0  0  0  0  0  0
    4.3053    4.7493    4.1095 C   0  0  0  0  0  0  0  0  0  0  0  0
    2.9828    5.1907    3.7977 C   0  0  0  0  0  0  0  0  0  0  0  0
    1.9432    4.7194    4.6561 C   0  0  0  0  0  0  0  0  0  0  0  0
    2.4149    3.4090    4.9788 C   0  0  0  0  0  0  0  0  0  0  0  0
    3.4913    3.4103    5.9146 C   0  0  0  0  0  0  0  0  0  0  0  0
    4.2269    4.5716    5.5214 C   0  0  0  0  0  0  0  0  0  0  0  0
    3.7443    2.4347    7.0571 C   0  0  0  0  0  0  0  0  0  0  0  0
    3.7830    1.0490    6.6232 N   0  0  0  0  0  0  0  0  0  0  0  0
    3.7956   -0.3001    6.1307 C   0  0  0  0  0  0  0  0  0  0  0  0
    3.0269   -0.2256    7.2451 N   0  0  0  0  0  0  0  0  0  0  0  0
    1.9359   -1.0242    7.3399 C   0  0  0  0  0  0  0  0  0  0  0  0
    1.7687   -1.9745    6.3600 C   0  0  0  0  0  0  0  0  0  0  0  0
    2.8737   -2.3090    5.5871 C   0  0  0  0  0  0  0  0  0  0  0  0
    2.7191   -3.3766    4.7357 C   0  0  0  0  0  0  0  0  0  0  0  0
    3.6948   -3.5177    3.7584 C   0  0  0  0  0  0  0  0  0  0  0  0
    4.9606   -3.0268    4.0565 C   0  0  0  0  0  0  0  0  0  0  0  0
    5.1554   -2.4152    5.2895 C   0  0  0  0  0  0  0  0  0  0  0  0
    4.0887   -1.6184    5.7238 C   0  0  0  0  0  0  0  0  0  0  0  0
    4.8957   -3.6131    2.7889 O   0  0  0  0  0  0  0  0  0  0  0  0
    5.0196   -4.2351    1.5555 N   0  0  0  0  0  0  0  0  0  0  0  0
    4.3224   -3.3613    0.6123 C   0  0  0  0  0  0  0  0  0  0  0  0
    0.8071    5.5163    5.2990 C   0  0  0  0  0  0  0  0  0  0  0  0
   -0.3401    5.5699    4.3947 N   0  0  0  0  0  0  0  0  0  0  0  0
   -1.4951    5.6336    3.5445 C   0  0  0  0  0  0  0  0  0  0  0  0
   -0.7815    6.7831    3.4469 N   0  0  0  0  0  0  0  0  0  0  0  0
   -0.8678    7.5444    2.3283 C   0  0  0  0  0  0  0  0  0  0  0  0
   -1.5538    6.9851    1.2712 C   0  0  0  0  0  0  0  0  0  0  0  0
   -2.5929    6.1267    1.6100 C   0  0  0  0  0  0  0  0  0  0  0  0
   -3.4238    5.7080    0.5863 C   0  0  0  0  0  0  0  0  0  0  0  0
   -4.3214    4.7101    0.8865 C   0  0  0  0  0  0  0  0  0  0  0  0
   -4.6780    4.5343    2.2179 C   0  0  0  0  0  0  0  0  0  0  0  0
   -4.1077    5.3706    3.1696 C   0  0  0  0  0  0  0  0  0  0  0  0
   -2.7647    5.6886    2.9335 C   0  0  0  0  0  0  0  0  0  0  0  0
   -5.3644    3.6029    1.4356 O   0  0  0  0  0  0  0  0  0  0  0  0
   -6.4822    3.1627    0.7451 N   0  0  0  0  0  0  0  0  0  0  0  0
   -6.8902    1.8543    1.2551 C   0  0  0  0  0  0  0  0  0  0  0  0
   -5.8457    0.7831    0.9063 C   0  0  0  0  0  0  0  0  0  0  0  0
   -5.4730    0.3183   -0.3931 C   0  0  0  0  0  0  0  0  0  0  0  0
   -5.9610   -0.9726   -0.7650 C   0  0  0  0  0  0  0  0  0  0  0  0
   -5.3246   -1.7863    0.2192 C   0  0  0  0  0  0  0  0  0  0  0  0
   -5.7518   -1.5256    1.5578 C   0  0  0  0  0  0  0  0  0  0  0  0
   -5.2301   -0.2072    1.7345 C   0  0  0  0  0  0  0  0  0  0  0  0
   -6.7168   -2.3242    2.4437 C   0  0  0  0  0  0  0  0  0  0  0  0
   -5.9895   -3.1735    3.3510 N   0  0  0  0  0  0  0  0  0  0  0  0
   -5.3954   -4.2539    2.7165 O   0  0  0  0  0  0  0  0  0  0  0  0
   -4.4717   -4.9964    1.9671 C   0  0  0  0  0  0  0  0  0  0  0  0
   -4.0538   -4.9769    3.2935 C   0  0  0  0  0  0  0  0  0  0  0  0
   -2.6873   -4.8972    3.5298 C   0  0  0  0  0  0  0  0  0  0  0  0
   -1.8839   -4.5365    2.4816 C   0  0  0  0  0  0  0  0  0  0  0  0
   -0.5653   -4.2303    2.7982 C   0  0  0  0  0  0  0  0  0  0  0  0
    0.2970   -4.1079    1.7247 C   0  0  0  0  0  0  0  0  0  0  0  0
   -0.2664   -3.6761    0.5695 N   0  0  0  0  0  0  0  0  0  0  0  0
   -1.6051   -3.4884    0.4531 C   0  0  0  0  0  0  0  0  0  0  0  0
   -0.9042   -2.4867   -0.2836 N   0  0  0  0  0  0  0  0  0  0  0  0
   -0.3011   -1.2126   -0.5785 C   0  0  0  0  0  0  0  0  0  0  0  0
   -2.3359   -4.4726    1.1509 C   0  0  0  0  0  0  0  0  0  0  0  0
   -3.4836   -5.2701    1.0221 C   0  0  0  0  0  0  0  0  0  0  0  0
   -7.1033   -1.3497   -1.7176 C   0  0  0  0  0  0  0  0  0  0  0  0
   -6.8763   -2.5468   -2.4352 N   0  0  0  0  0  0  0  0  0  0  0  0
   -5.5734   -3.0170   -2.3739 O   0  0  0  0  0  0  0  0  0  0  0  0
    2.8778   -1.0091   -7.6478 C   0  0  0  0  0  0  0  0  0  0  0  0
    3.8060   -1.9139   -8.1866 C   0  0  0  0  0  0  0  0  0  0  0  0
   -1.1576   -8.3171   -3.9320 H   0  0  0  0  0  0  0  0  0  0  0  0
   -3.3287   -8.0221   -2.7100 H   0  0  0  0  0  0  0  0  0  0  0  0
   -5.1740   -6.6493   -2.2687 H   0  0  0  0  0  0  0  0  0  0  0  0
   -5.9256   -4.3572   -1.7586 H   0  0  0  0  0  0  0  0  0  0  0  0
   -3.3125   -3.3104   -4.8975 H   0  0  0  0  0  0  0  0  0  0  0  0
    0.2512   -6.1223   -3.1742 H   0  0  0  0  0  0  0  0  0  0  0  0
    2.0920   -6.0839   -3.7078 H   0  0  0  0  0  0  0  0  0  0  0  0
    1.7820   -4.6362   -4.5728 H   0  0  0  0  0  0  0  0  0  0  0  0
    2.1827   -5.3119   -0.5592 H   0  0  0  0  0  0  0  0  0  0  0  0
    5.7079   -4.8951   -1.9220 H   0  0  0  0  0  0  0  0  0  0  0  0
    2.6500   -2.0578   -2.5882 H   0  0  0  0  0  0  0  0  0  0  0  0
    5.1454   -1.5080   -4.1039 H   0  0  0  0  0  0  0  0  0  0  0  0
    6.4825   -2.2678   -3.3690 H   0  0  0  0  0  0  0  0  0  0  0  0
    6.6395   -3.7286   -4.9668 H   0  0  0  0  0  0  0  0  0  0  0  0
    6.3629   -1.2398   -6.1568 H   0  0  0  0  0  0  0  0  0  0  0  0
    5.3652    1.0373   -6.4810 H   0  0  0  0  0  0  0  0  0  0  0  0
    3.3392    2.1620   -6.4995 H   0  0  0  0  0  0  0  0  0  0  0  0
    0.9311    2.1263   -6.4502 H   0  0  0  0  0  0  0  0  0  0  0  0
    0.0181   -0.2829   -6.4748 H   0  0  0  0  0  0  0  0  0  0  0  0
   -1.5492   -1.7404   -5.7872 H   0  0  0  0  0  0  0  0  0  0  0  0
   -0.3315   -2.5257   -4.8752 H   0  0  0  0  0  0  0  0  0  0  0  0
    1.1643   -0.0640   -3.0011 H   0  0  0  0  0  0  0  0  0  0  0  0
   -2.9155   -0.8343   -2.2293 H   0  0  0  0  0  0  0  0  0  0  0  0
   -1.6743    1.3303   -5.1620 H   0  0  0  0  0  0  0  0  0  0  0  0
   -3.2266    2.4532   -1.8292 H   0  0  0  0  0  0  0  0  0  0  0  0
   -2.2419    3.2306   -2.9853 H   0  0  0  0  0  0  0  0  0  0  0  0
   -1.8369    2.7862   -0.5645 H   0  0  0  0  0  0  0  0  0  0  0  0
   -2.1959    1.8189    1.8861 H   0  0  0  0  0  0  0  0  0  0  0  0
   -0.0716    1.5347    3.2147 H   0  0  0  0  0  0  0  0  0  0  0  0
    2.0605    0.3366    2.2696 H   0  0  0  0  0  0  0  0  0  0  0  0
    4.2784    1.3113    1.6009 H   0  0  0  0  0  0  0  0  0  0  0  0
    2.2709    4.7823    0.1250 H   0  0  0  0  0  0  0  0  0  0  0  0
    6.1441    2.4793    2.5409 H   0  0  0  0  0  0  0  0  0  0  0  0
    5.4544    4.8393    2.2372 H   0  0  0  0  0  0  0  0  0  0  0  0
    6.4131    4.4517    3.5839 H   0  0  0  0  0  0  0  0  0  0  0  0
    2.7762    5.8347    2.9376 H   0  0  0  0  0  0  0  0  0  0  0  0
    1.9268    2.5094    4.5977 H   0  0  0  0  0  0  0  0  0  0  0  0
    4.7200    5.2482    6.2244 H   0  0  0  0  0  0  0  0  0  0  0  0
    3.0213    2.5915    7.8980 H   0  0  0  0  0  0  0  0  0  0  0  0
    4.7188    2.5528    7.5313 H   0  0  0  0  0  0  0  0  0  0  0  0
    3.3323    0.7365    7.5236 H   0  0  0  0  0  0  0  0  0  0  0  0
    1.0370   -0.6343    7.8193 H   0  0  0  0  0  0  0  0  0  0  0  0
    0.7848   -2.2511    5.9777 H   0  0  0  0  0  0  0  0  0  0  0  0
    1.9432   -4.1161    4.8933 H   0  0  0  0  0  0  0  0  0  0  0  0
    3.6106   -4.4065    3.1443 H   0  0  0  0  0  0  0  0  0  0  0  0
    6.0510   -2.6187    5.8588 H   0  0  0  0  0  0  0  0  0  0  0  0
    6.0270   -4.3204    1.3194 H   0  0  0  0  0  0  0  0  0  0  0  0
    3.4111   -3.0591    1.1385 H   0  0  0  0  0  0  0  0  0  0  0  0
    4.8477   -2.4128    0.4667 H   0  0  0  0  0  0  0  0  0  0  0  0
    0.4357    5.1033    6.2299 H   0  0  0  0  0  0  0  0  0  0  0  0
    1.0577    6.5511    5.5476 H   0  0  0  0  0  0  0  0  0  0  0  0
    0.1692    6.2506    3.7716 H   0  0  0  0  0  0  0  0  0  0  0  0
    0.0310    8.1074    2.0709 H   0  0  0  0  0  0  0  0  0  0  0  0
   -1.2745    7.1206    0.2323 H   0  0  0  0  0  0  0  0  0  0  0  0
   -2.9450    5.6255   -0.3918 H   0  0  0  0  0  0  0  0  0  0  0  0
   -4.5171    3.8599    0.2300 H   0  0  0  0  0  0  0  0  0  0  0  0
   -4.7065    5.7847    3.9785 H   0  0  0  0  0  0  0  0  0  0  0  0
   -6.3092    3.0367   -0.2654 H   0  0  0  0  0  0  0  0  0  0  0  0
   -6.9379    2.0577    2.3282 H   0  0  0  0  0  0  0  0  0  0  0  0
   -7.9045    1.5756    0.9690 H   0  0  0  0  0  0  0  0  0  0  0  0
   -4.9060    0.9422   -1.0950 H   0  0  0  0  0  0  0  0  0  0  0  0
   -4.6429   -2.6014   -0.0413 H   0  0  0  0  0  0  0  0  0  0  0  0
   -4.5173    0.0491    2.5245 H   0  0  0  0  0  0  0  0  0  0  0  0
   -7.3803   -1.6968    3.0465 H   0  0  0  0  0  0  0  0  0  0  0  0
   -7.4094   -2.9542    1.8848 H   0  0  0  0  0  0  0  0  0  0  0  0
   -6.6815   -3.5723    4.0051 H   0  0  0  0  0  0  0  0  0  0  0  0
   -4.8016   -4.8058    4.0397 H   0  0  0  0  0  0  0  0  0  0  0  0
   -2.3547   -5.1987    4.5017 H   0  0  0  0  0  0  0  0  0  0  0  0
   -0.1669   -4.4689    3.7843 H   0  0  0  0  0  0  0  0  0  0  0  0
    1.3563   -4.2431    1.7909 H   0  0  0  0  0  0  0  0  0  0  0  0
   -0.0728   -3.0918   -0.3869 H   0  0  0  0  0  0  0  0  0  0  0  0
   -0.4611   -0.4494    0.2265 H   0  0  0  0  0  0  0  0  0  0  0  0
    0.7749   -1.3993   -0.4903 H   0  0  0  0  0  0  0  0  0  0  0  0
   -3.6225   -6.0184    0.2411 H   0  0  0  0  0  0  0  0  0  0  0  0
   -8.0773   -1.4017   -1.2019 H   0  0  0  0  0  0  0  0  0  0  0  0
   -7.2352   -0.6107   -2.5179 H   0  0  0  0  0  0  0  0  0  0  0  0
   -7.5794   -3.2882   -2.2795 H   0  0  0  0  0  0  0  0  0  0  0  0
    3.6815   -2.4312   -9.1295 H   0  0  0  0  0  0  0  0  0  0  0  0
  1  2  2  0
  2  3  1  0
  3  4  2  0
  4  5  1  0
  5  6  2  0
  6  7  1  0
  7  8  2  0
  8  9  1  0
  9 10  2  0
  9 11  1  0
 11 12  1  0
 12 13  1  0
 13 14  2  0
 14 15  1  0
 15 16  2  0
 16 17  1  0
 17 18  2  0
 17 19  1  0
 19 20  1  0
 20 21  1  0
 21 22  1  0
 22 23  2  0
 23 24  1  0
 24 25  2  0
 25 26  1  0
 26 27  2  0
 27 28  1  0
 28 29  2  0
 29 30  1  0
 30 31  1  0
 31 32  1  0
 32 33  1  0
 33 34  2  0
 34 35  1  0
 35 36  2  0
 36 37  1  0
 36 38  1  0
 38 39  1  0
 39 40  1  0
 40 41  2  0
 41 42  1  0
 42 43  2  0
 43 44  1  0
 44 45  2  0
 45 46  1  0
 46 47  2  0
 47 48  1  0
 48 49  2  0
 47 50  1  0
 50 51  1  0
 51 52  1  0
 52 53  1  0
 53 54  2  0
 54 55  1  0
 55 56  2  0
 56 57  1  0
 57 58  2  0
 57 59  1  0
 59 60  1  0
 60 61  1  0
 61 62  2  0
 62 63  1  0
 63 64  2  0
 64 65  1  0
 65 66  2  0
 66 67  1  0
 67 68  2  0
 68 69  1  0
 69 70  2  0
 68 71  1  0
 71 72  1  0
 72 73  1  0
 55 74  1  0
 74 75  1  0
 75 76  1  0
 76 77  2  0
 77 78  1  0
 78 79  2  0
 79 80  1  0
 80 81  2  0
 81 82  1  0
 82 83  2  0
 83 84  1  0
 84 85  2  0
 83 86  1  0
 86 87  1  0
 87 88  1  0
 88 89  1  0
 89 90  2  0
 90 91  1  0
 91 92  2  0
 92 93  1  0
 93 94  2  0
 93 95  1  0
 95 96  1  0
 96 97  1  0
 97 98  1  0
 98 99  1  0
 99100  2  0
100101  1  0
101102  2  0
102103  1  0
103104  2  0
104105  1  0
105106  1  0
106107  1  0
105108  2  0
108109  1  0
 91110  1  0
110111  1  0
111112  1  0
 29113  1  0
113114  2  0
 10  1  1  0
 18 13  1  0
114 22  1  0
  8  3  1  0
 73 15  1  0
 85 76  1  0
 94 89  1  0
109 98  2  0
112  6  1  0
113 25  1  0
 37 32  2  0
 49 40  1  0
 58 53  1  0
 70 61  1  0
 85 80  1  0
108101  1  0
107 34  1  0
 49 44  1  0
 70 65  1  0
  1115  1  0
  2116  1  0
  4117  1  0
  5118  1  0
  7119  1  0
 11120  1  0
 12121  1  0
 12122  1  0
 14123  1  0
 16124  1  0
 18125  1  0
 19126  1  0
 19127  1  0
 20128  1  0
 23129  1  0
 24130  1  0
 26131  1  0
 27132  1  0
 30133  1  0
 31134  1  0
 31135  1  0
 33136  1  0
 35137  1  0
 37138  1  0
 38139  1  0
 38140  1  0
 39141  1  0
 42142  1  0
 43143  1  0
 45144  1  0
 46145  1  0
 48146  1  0
 51147  1  0
 52148  1  0
 52149  1  0
 54150  1  0
 56151  1  0
 58152  1  0
 59153  1  0
 59154  1  0
 60155  1  0
 63156  1  0
 64157  1  0
 66158  1  0
 67159  1  0
 69160  1  0
 72161  1  0
 73162  1  0
 73163  1  0
 74164  1  0
 74165  1  0
 75166  1  0
 78167  1  0
 79168  1  0
 81169  1  0
 82170  1  0
 84171  1  0
 87172  1  0
 88173  1  0
 88174  1  0
 90175  1  0
 92176  1  0
 94177  1  0
 95178  1  0
 95179  1  0
 96180  1  0
 99181  1  0
100182  1  0
102183  1  0
103184  1  0
106185  1  0
107186  1  0
107187  1  0
109188  1  0
110189  1  0
110190  1  0
111191  1  0
114192  1  0
M  END
