
     RDKit          3D

126132  0  0  0  0  0  0  0  0999 V2000
    4.9600    4.5332   -2.9419 C   0  0  0  0  0  0  0  0  0  0  0  0
    3.9272    3.9847   -3.2791 C   0  0  0  0  0  0  0  0  0  0  0  0
    2.6278    3.3209   -3.5166 C   0  0  0  0  0  0  0  0  0  0  0  0
    2.7791    2.5642   -5.3045 Br  0  0  0  0  0  0  0  0  0  0  0  0
    2.4529    2.3623   -2.5295 N   0  0  0  0  0  0  0  0  0  0  0  0
    2.3183    0.9819   -2.8288 C   0  0  0  0  0  0  0  0  0  0  0  0
    1.3537    0.5799   -3.8627 C   0  0  0  0  0  0  0  0  0  0  0  0
    1.3705   -0.5810   -4.6780 C   0  0  0  0  0  0  0  0  0  0  0  0
    0.8553   -1.7749   -4.1134 C   0  0  0  0  0  0  0  0  0  0  0  0
   -0.5085   -1.3652   -4.0157 C   0  0  0  0  0  0  0  0  0  0  0  0
   -0.7885   -0.3014   -3.1202 C   0  0  0  0  0  0  0  0  0  0  0  0
   -0.0596    0.7007   -3.8161 C   0  0  0  0  0  0  0  0  0  0  0  0
   -0.9887   -0.4140   -1.6456 C   0  0  0  0  0  0  0  0  0  0  0  0
   -2.1594   -1.1186   -1.2324 N   0  0  0  0  0  0  0  0  0  0  0  0
   -2.9542   -0.5775   -0.2059 C   0  0  0  0  0  0  0  0  0  0  0  0
   -4.7031   -1.3940   -0.5713 Br  0  0  0  0  0  0  0  0  0  0  0  0
   -3.1751    0.8482   -0.2449 C   0  0  0  0  0  0  0  0  0  0  0  0
   -3.4340    2.0119   -0.2823 C   0  0  0  0  0  0  0  0  0  0  0  0
   -2.5295   -1.1099    1.0227 N   0  0  0  0  0  0  0  0  0  0  0  0
   -3.3508   -0.9536    2.2214 C   0  0  0  0  0  0  0  0  0  0  0  0
   -3.0584    0.1756    3.0858 C   0  0  0  0  0  0  0  0  0  0  0  0
   -3.9836    0.9944    3.7908 C   0  0  0  0  0  0  0  0  0  0  0  0
   -3.4638    1.7836    4.8650 C   0  0  0  0  0  0  0  0  0  0  0  0
   -3.2905    0.5965    5.6660 C   0  0  0  0  0  0  0  0  0  0  0  0
   -2.1748   -0.1614    5.2186 C   0  0  0  0  0  0  0  0  0  0  0  0
   -1.8773    0.3042    3.8880 C   0  0  0  0  0  0  0  0  0  0  0  0
   -1.6646   -1.3717    5.7867 C   0  0  0  0  0  0  0  0  0  0  0  0
   -1.1209   -2.4486    4.9584 N   0  0  0  0  0  0  0  0  0  0  0  0
   -0.0958   -3.2376    5.5088 C   0  0  0  0  0  0  0  0  0  0  0  0
    0.0192   -3.1175    7.4582 Br  0  0  0  0  0  0  0  0  0  0  0  0
   -0.4637   -4.6540    5.2895 C   0  0  0  0  0  0  0  0  0  0  0  0
   -0.8488   -5.7998    5.1507 C   0  0  0  0  0  0  0  0  0  0  0  0
    1.2342   -3.0826    5.0563 N   0  0  0  0  0  0  0  0  0  0  0  0
    1.8205   -3.9658    4.1287 C   0  0  0  0  0  0  0  0  0  0  0  0
    1.1463   -4.2682    2.8403 C   0  0  0  0  0  0  0  0  0  0  0  0
    1.6981   -4.8155    1.6553 C   0  0  0  0  0  0  0  0  0  0  0  0
    2.2279   -3.9248    0.6735 C   0  0  0  0  0  0  0  0  0  0  0  0
    1.0950   -3.1050    0.4472 C   0  0  0  0  0  0  0  0  0  0  0  0
    0.6713   -2.3744    1.5828 C   0  0  0  0  0  0  0  0  0  0  0  0
    0.1276   -3.5196    2.2074 C   0  0  0  0  0  0  0  0  0  0  0  0
    1.0758   -1.0562    2.0651 C   0  0  0  0  0  0  0  0  0  0  0  0
    2.3665   -0.5364    1.8194 N   0  0  0  0  0  0  0  0  0  0  0  0
    2.3735    0.9263    1.9595 C   0  0  0  0  0  0  0  0  0  0  0  0
    2.2382    1.4370    3.7770 Br  0  0  0  0  0  0  0  0  0  0  0  0
    3.7215    1.3252    1.5029 C   0  0  0  0  0  0  0  0  0  0  0  0
    4.8072    1.6734    1.0883 C   0  0  0  0  0  0  0  0  0  0  0  0
    1.4519    1.3491    1.0552 N   0  0  0  0  0  0  0  0  0  0  0  0
    0.6167    2.5095    1.3155 C   0  0  0  0  0  0  0  0  0  0  0  0
    0.7080    3.5579    0.3246 C   0  0  0  0  0  0  0  0  0  0  0  0
   -0.0100    3.6332   -0.9009 C   0  0  0  0  0  0  0  0  0  0  0  0
    0.2568    4.8414   -1.6212 C   0  0  0  0  0  0  0  0  0  0  0  0
   -0.4578    5.6203   -0.6594 C   0  0  0  0  0  0  0  0  0  0  0  0
    0.1458    5.7443    0.6265 C   0  0  0  0  0  0  0  0  0  0  0  0
    1.2740    4.8645    0.5374 C   0  0  0  0  0  0  0  0  0  0  0  0
   -0.4466    6.1604    1.8878 C   0  0  0  0  0  0  0  0  0  0  0  0
   -0.6216    5.2252    2.9757 N   0  0  0  0  0  0  0  0  0  0  0  0
   -1.9458    4.8873    3.3768 C   0  0  0  0  0  0  0  0  0  0  0  0
   -2.2995    5.9465    4.9737 Br  0  0  0  0  0  0  0  0  0  0  0  0
   -2.9645    5.1288    2.3650 C   0  0  0  0  0  0  0  0  0  0  0  0
   -3.8300    5.5462    1.6195 C   0  0  0  0  0  0  0  0  0  0  0  0
   -1.9919    3.5168    3.7460 N   0  0  0  0  0  0  0  0  0  0  0  0
   -2.7792    3.1342    4.8387 C   0  0  0  0  0  0  0  0  0  0  0  0
    1.4799    5.1946   -2.4602 C   0  0  0  0  0  0  0  0  0  0  0  0
    1.6585    4.3765   -3.6129 N   0  0  0  0  0  0  0  0  0  0  0  0
    3.5912   -3.5653    0.4023 C   0  0  0  0  0  0  0  0  0  0  0  0
    4.1024   -3.7704   -0.9489 N   0  0  0  0  0  0  0  0  0  0  0  0
    3.2834   -3.7246   -2.0634 C   0  0  0  0  0  0  0  0  0  0  0  0
    4.5592   -4.0495   -3.5344 Br  0  0  0  0  0  0  0  0  0  0  0  0
    2.4708   -4.9286   -2.0806 C   0  0  0  0  0  0  0  0  0  0  0  0
    1.7916   -5.9283   -2.0871 C   0  0  0  0  0  0  0  0  0  0  0  0
    2.6431   -2.5206   -2.4624 N   0  0  0  0  0  0  0  0  0  0  0  0
    1.5708   -2.7983   -3.3962 C   0  0  0  0  0  0  0  0  0  0  0  0
    5.6786    4.8101   -2.2001 H   0  0  0  0  0  0  0  0  0  0  0  0
    2.9093    2.4759   -1.6206 H   0  0  0  0  0  0  0  0  0  0  0  0
    3.4069    0.7892   -3.0289 H   0  0  0  0  0  0  0  0  0  0  0  0
    2.2510    0.4520   -1.8401 H   0  0  0  0  0  0  0  0  0  0  0  0
    1.8086   -0.5500   -5.7008 H   0  0  0  0  0  0  0  0  0  0  0  0
   -1.3121   -1.8728   -4.5915 H   0  0  0  0  0  0  0  0  0  0  0  0
   -0.5815    1.5862   -4.2446 H   0  0  0  0  0  0  0  0  0  0  0  0
   -0.1488   -0.7907   -1.0469 H   0  0  0  0  0  0  0  0  0  0  0  0
   -1.1758    0.5441   -1.0942 H   0  0  0  0  0  0  0  0  0  0  0  0
   -1.9749   -2.1170   -1.0355 H   0  0  0  0  0  0  0  0  0  0  0  0
   -3.8377    2.9786   -0.1789 H   0  0  0  0  0  0  0  0  0  0  0  0
   -2.3206   -2.1274    0.8283 H   0  0  0  0  0  0  0  0  0  0  0  0
   -4.2750   -1.0883    1.6536 H   0  0  0  0  0  0  0  0  0  0  0  0
   -3.3391   -1.9870    2.6819 H   0  0  0  0  0  0  0  0  0  0  0  0
   -4.9899    1.2783    3.4079 H   0  0  0  0  0  0  0  0  0  0  0  0
   -3.8066    0.5724    6.6495 H   0  0  0  0  0  0  0  0  0  0  0  0
   -0.9439    0.8001    3.5689 H   0  0  0  0  0  0  0  0  0  0  0  0
   -0.7868   -1.2419    6.4898 H   0  0  0  0  0  0  0  0  0  0  0  0
   -2.2647   -2.1113    6.3778 H   0  0  0  0  0  0  0  0  0  0  0  0
   -1.8911   -2.9789    4.4681 H   0  0  0  0  0  0  0  0  0  0  0  0
   -1.0328   -6.8011    5.4669 H   0  0  0  0  0  0  0  0  0  0  0  0
    1.6143   -2.1255    5.1126 H   0  0  0  0  0  0  0  0  0  0  0  0
    1.9673   -4.8674    4.7802 H   0  0  0  0  0  0  0  0  0  0  0  0
    2.8562   -3.5375    4.0607 H   0  0  0  0  0  0  0  0  0  0  0  0
    1.6708   -5.9124    1.4686 H   0  0  0  0  0  0  0  0  0  0  0  0
    0.5592   -3.0174   -0.5213 H   0  0  0  0  0  0  0  0  0  0  0  0
   -0.9547   -3.6925    2.3681 H   0  0  0  0  0  0  0  0  0  0  0  0
    0.3351   -0.2682    1.7547 H   0  0  0  0  0  0  0  0  0  0  0  0
    1.0449   -0.8494    3.1667 H   0  0  0  0  0  0  0  0  0  0  0  0
    2.5454   -0.6561    0.7848 H   0  0  0  0  0  0  0  0  0  0  0  0
    5.5821    1.7784    0.3605 H   0  0  0  0  0  0  0  0  0  0  0  0
    1.1711    0.7931    0.2494 H   0  0  0  0  0  0  0  0  0  0  0  0
   -0.3710    2.1117    1.6716 H   0  0  0  0  0  0  0  0  0  0  0  0
    0.9452    2.7053    2.3754 H   0  0  0  0  0  0  0  0  0  0  0  0
   -0.5473    2.8243   -1.4405 H   0  0  0  0  0  0  0  0  0  0  0  0
   -1.2762    6.2665   -1.0404 H   0  0  0  0  0  0  0  0  0  0  0  0
    2.3360    5.1445    0.5013 H   0  0  0  0  0  0  0  0  0  0  0  0
   -1.4244    6.6431    1.9895 H   0  0  0  0  0  0  0  0  0  0  0  0
    0.1052    7.0110    2.4029 H   0  0  0  0  0  0  0  0  0  0  0  0
   -0.0036    5.3717    3.7838 H   0  0  0  0  0  0  0  0  0  0  0  0
   -4.7506    5.9954    1.3145 H   0  0  0  0  0  0  0  0  0  0  0  0
   -0.9919    3.1986    3.8647 H   0  0  0  0  0  0  0  0  0  0  0  0
   -3.4900    3.9806    5.0447 H   0  0  0  0  0  0  0  0  0  0  0  0
   -2.0658    3.3115    5.6851 H   0  0  0  0  0  0  0  0  0  0  0  0
    1.4323    6.1653   -2.9685 H   0  0  0  0  0  0  0  0  0  0  0  0
    2.4326    5.2413   -1.9284 H   0  0  0  0  0  0  0  0  0  0  0  0
    0.7419    4.0788   -3.9962 H   0  0  0  0  0  0  0  0  0  0  0  0
    3.9826   -2.5252    0.5688 H   0  0  0  0  0  0  0  0  0  0  0  0
    4.4356   -4.0158    1.0015 H   0  0  0  0  0  0  0  0  0  0  0  0
    4.6515   -4.6709   -1.0097 H   0  0  0  0  0  0  0  0  0  0  0  0
    1.2505   -6.8254   -1.9176 H   0  0  0  0  0  0  0  0  0  0  0  0
    3.3767   -1.8949   -2.8516 H   0  0  0  0  0  0  0  0  0  0  0  0
    2.0415   -3.5949   -4.0425 H   0  0  0  0  0  0  0  0  0  0  0  0
    0.9983   -3.5060   -2.7374 H   0  0  0  0  0  0  0  0  0  0  0  0
  1  2  3  0
  2  3  1  0
  3  4  1  0
  3  5  1  0
  5  6  1  0
  6  7  1  0
  7  8  2  0
  8  9  1  0
  9 10  2  0
 10 11  1  0
 11 12  2  0
 11 13  1  0
 13 14  1  0
 14 15  1  0
 15 16  1  0
 15 17  1  0
 17 18  3  0
 15 19  1  0
 19 20  1  0
 20 21  1  0
 21 22  2  0
 22 23  1  0
 23 24  2  0
 24 25  1  0
 25 26  2  0
 25 27  1  0
 27 28  1  0
 28 29  1  0
 29 30  1  0
 29 31  1  0
 31 32  3  0
 29 33  1  0
 33 34  1  0
 34 35  1  0
 35 36  1  0
 36 37  2  0
 37 38  1  0
 38 39  2  0
 39 40  1  0
 39 41  1  0
 41 42  1  0
 42 43  1  0
 43 44  1  0
 43 45  1  0
 45 46  3  0
 43 47  1  0
 47 48  1  0
 48 49  1  0
 49 50  1  0
 50 51  2  0
 51 52  1  0
 52 53  2  0
 53 54  1  0
 53 55  1  0
 55 56  1  0
 56 57  1  0
 57 58  1  0
 57 59  1  0
 59 60  3  0
 57 61  1  0
 61 62  1  0
 51 63  1  0
 63 64  1  0
 37 65  1  0
 65 66  1  0
 66 67  1  0
 67 68  1  0
 67 69  1  0
 69 70  3  0
 67 71  1  0
 71 72  1  0
 64  3  1  0
 12  7  1  0
 26 21  1  0
 40 35  2  0
 54 49  2  0
 72  9  1  0
 62 23  1  0
  1 73  1  0
  5 74  1  0
  6 75  1  0
  6 76  1  0
  8 77  1  0
 10 78  1  0
 12 79  1  0
 13 80  1  0
 13 81  1  0
 14 82  1  0
 18 83  1  0
 19 84  1  0
 20 85  1  0
 20 86  1  0
 22 87  1  0
 24 88  1  0
 26 89  1  0
 27 90  1  0
 27 91  1  0
 28 92  1  0
 32 93  1  0
 33 94  1  0
 34 95  1  0
 34 96  1  0
 36 97  1  0
 38 98  1  0
 40 99  1  0
 41100  1  0
 41101  1  0
 42102  1  0
 46103  1  0
 47104  1  0
 48105  1  0
 48106  1  0
 50107  1  0
 52108  1  0
 54109  1  0
 55110  1  0
 55111  1  0
 56112  1  0
 60113  1  0
 61114  1  0
 62115  1  0
 62116  1  0
 63117  1  0
 63118  1  0
 64119  1  0
 65120  1  0
 65121  1  0
 66122  1  0
 70123  1  0
 71124  1  0
 72125  1  0
 72126  1  0
M  END
