
     RDKit          3D

252264  0  0  0  0  0  0  0  0999 V2000
    4.7725   -3.0116    1.5519 O   0  0  0  0  0  0  0  0  0  0  0  0
    4.3804   -3.2480    0.5105 C   0  0  0  0  0  0  0  0  0  0  0  0
    3.2494   -3.9510    0.9319 O   0  0  0  0  0  0  0  0  0  0  0  0
    2.1490   -4.7936    1.2289 C   0  0  0  0  0  0  0  0  0  0  0  0
    1.2732   -4.1272    2.1656 N   0  0  0  0  0  0  0  0  0  0  0  0
   -0.0015   -3.8689    1.5096 C   0  0  0  0  0  0  0  0  0  0  0  0
   -0.6459   -2.5361    1.6461 C   0  0  0  0  0  0  0  0  0  0  0  0
   -1.8167   -2.1857    2.4032 C   0  0  0  0  0  0  0  0  0  0  0  0
   -1.3777   -1.5927    3.6387 C   0  0  0  0  0  0  0  0  0  0  0  0
   -0.6946   -0.4193    3.1952 C   0  0  0  0  0  0  0  0  0  0  0  0
   -0.8128   -0.1108    1.7916 C   0  0  0  0  0  0  0  0  0  0  0  0
   -0.0514   -1.2643    1.3837 C   0  0  0  0  0  0  0  0  0  0  0  0
   -1.8425    0.7204    1.0328 C   0  0  0  0  0  0  0  0  0  0  0  0
   -1.3021    1.9939    0.5793 N   0  0  0  0  0  0  0  0  0  0  0  0
   -0.4850    1.7490   -0.6071 C   0  0  0  0  0  0  0  0  0  0  0  0
   -0.8233    2.6437   -1.6605 O   0  0  0  0  0  0  0  0  0  0  0  0
   -1.1712    3.4666   -2.7359 C   0  0  0  0  0  0  0  0  0  0  0  0
   -0.8430    2.6276   -3.6284 O   0  0  0  0  0  0  0  0  0  0  0  0
   -1.5421    4.4643   -3.7881 C   0  0  0  0  0  0  0  0  0  0  0  0
   -2.0866    3.6817   -4.9769 C   0  0  0  0  0  0  0  0  0  0  0  0
   -2.8098    4.5734   -5.9322 C   0  0  0  0  0  0  0  0  0  0  0  0
   -3.5167    5.6222   -5.5544 C   0  0  0  0  0  0  0  0  0  0  0  0
   -3.1480    6.2565   -4.2552 C   0  0  0  0  0  0  0  0  0  0  0  0
   -2.7260    5.2412   -3.2304 C   0  0  0  0  0  0  0  0  0  0  0  0
   -3.8378    4.2543   -3.0598 C   0  0  0  0  0  0  0  0  0  0  0  0
   -4.6923    5.1886   -3.1370 O   0  0  0  0  0  0  0  0  0  0  0  0
   -4.7046    3.2893   -2.5992 O   0  0  0  0  0  0  0  0  0  0  0  0
   -5.4974    2.4047   -1.8494 C   0  0  0  0  0  0  0  0  0  0  0  0
   -5.1590    1.0200   -2.0478 N   0  0  0  0  0  0  0  0  0  0  0  0
   -6.3963    0.3333   -2.3179 C   0  0  0  0  0  0  0  0  0  0  0  0
   -6.3651   -1.1138   -2.6634 C   0  0  0  0  0  0  0  0  0  0  0  0
   -5.3216   -1.8770   -3.2609 C   0  0  0  0  0  0  0  0  0  0  0  0
   -4.4141   -2.5327   -2.3758 C   0  0  0  0  0  0  0  0  0  0  0  0
   -5.3514   -3.4493   -1.8165 C   0  0  0  0  0  0  0  0  0  0  0  0
   -6.3858   -2.8849   -1.0138 C   0  0  0  0  0  0  0  0  0  0  0  0
   -7.0642   -2.2036   -2.0639 C   0  0  0  0  0  0  0  0  0  0  0  0
   -6.4191   -2.6336    0.4615 C   0  0  0  0  0  0  0  0  0  0  0  0
   -6.7403   -1.3094    0.9242 N   0  0  0  0  0  0  0  0  0  0  0  0
   -7.2648   -1.3848    2.2560 C   0  0  0  0  0  0  0  0  0  0  0  0
   -6.7787   -0.2677    2.9981 O   0  0  0  0  0  0  0  0  0  0  0  0
   -6.3363    0.5947    3.9740 C   0  0  0  0  0  0  0  0  0  0  0  0
   -5.3214    0.9025    3.3189 O   0  0  0  0  0  0  0  0  0  0  0  0
   -5.9562    1.2424    5.2424 C   0  0  0  0  0  0  0  0  0  0  0  0
   -6.6844    2.5669    5.4476 C   0  0  0  0  0  0  0  0  0  0  0  0
   -6.0848    3.1308    6.7028 C   0  0  0  0  0  0  0  0  0  0  0  0
   -5.1854    2.4476    7.4221 C   0  0  0  0  0  0  0  0  0  0  0  0
   -4.1259    1.6033    6.7783 C   0  0  0  0  0  0  0  0  0  0  0  0
   -4.4730    1.5932    5.2912 C   0  0  0  0  0  0  0  0  0  0  0  0
   -4.2234    2.9562    4.7219 C   0  0  0  0  0  0  0  0  0  0  0  0
   -3.1406    2.5822    4.1782 O   0  0  0  0  0  0  0  0  0  0  0  0
   -3.9614    4.3077    4.4669 O   0  0  0  0  0  0  0  0  0  0  0  0
   -3.6003    5.6826    4.5902 C   0  0  0  0  0  0  0  0  0  0  0  0
   -2.1834    5.8923    4.5246 N   0  0  0  0  0  0  0  0  0  0  0  0
   -1.6625    5.6326    5.8445 C   0  0  0  0  0  0  0  0  0  0  0  0
   -0.2132    5.8903    6.1010 C   0  0  0  0  0  0  0  0  0  0  0  0
    0.7921    5.0187    6.6142 C   0  0  0  0  0  0  0  0  0  0  0  0
    1.5234    4.2630    5.6518 C   0  0  0  0  0  0  0  0  0  0  0  0
    2.1980    5.3641    5.0454 C   0  0  0  0  0  0  0  0  0  0  0  0
    1.3945    6.3052    4.3397 C   0  0  0  0  0  0  0  0  0  0  0  0
    0.6702    6.8062    5.4626 C   0  0  0  0  0  0  0  0  0  0  0  0
    1.0374    6.3400    2.8923 C   0  0  0  0  0  0  0  0  0  0  0  0
    1.0069    5.1039    2.1526 N   0  0  0  0  0  0  0  0  0  0  0  0
    0.7864    5.4535    0.7788 C   0  0  0  0  0  0  0  0  0  0  0  0
    1.8968    5.2311   -0.0528 O   0  0  0  0  0  0  0  0  0  0  0  0
    3.1111    4.9460   -0.6825 C   0  0  0  0  0  0  0  0  0  0  0  0
    2.8000    5.5696   -1.7250 O   0  0  0  0  0  0  0  0  0  0  0  0
    4.4862    4.6724   -1.2049 C   0  0  0  0  0  0  0  0  0  0  0  0
    5.3854    4.4269    0.0012 C   0  0  0  0  0  0  0  0  0  0  0  0
    4.8732    3.1712    0.6388 C   0  0  0  0  0  0  0  0  0  0  0  0
    3.8806    2.4615    0.1376 C   0  0  0  0  0  0  0  0  0  0  0  0
    3.5332    2.4388   -1.3177 C   0  0  0  0  0  0  0  0  0  0  0  0
    4.4830    3.4029   -2.0110 C   0  0  0  0  0  0  0  0  0  0  0  0
    4.0810    3.6868   -3.4018 C   0  0  0  0  0  0  0  0  0  0  0  0
    4.9568    4.5758   -3.5325 O   0  0  0  0  0  0  0  0  0  0  0  0
    3.7832    3.7113   -4.7466 O   0  0  0  0  0  0  0  0  0  0  0  0
    3.2877    3.6243   -6.0634 C   0  0  0  0  0  0  0  0  0  0  0  0
    4.0766    2.7464   -6.9033 N   0  0  0  0  0  0  0  0  0  0  0  0
    3.6431    1.3770   -6.6023 C   0  0  0  0  0  0  0  0  0  0  0  0
    2.3401    1.0324   -7.2492 C   0  0  0  0  0  0  0  0  0  0  0  0
    1.0431    0.9173   -6.6642 C   0  0  0  0  0  0  0  0  0  0  0  0
    0.6563   -0.3777   -6.2131 C   0  0  0  0  0  0  0  0  0  0  0  0
    0.6054   -1.0081   -7.4918 C   0  0  0  0  0  0  0  0  0  0  0  0
    1.8512   -1.1628   -8.1670 C   0  0  0  0  0  0  0  0  0  0  0  0
    2.0910    0.2248   -8.3980 C   0  0  0  0  0  0  0  0  0  0  0  0
    2.8187   -2.3041   -8.1256 C   0  0  0  0  0  0  0  0  0  0  0  0
    2.7444   -3.1464   -9.3242 N   0  0  0  0  0  0  0  0  0  0  0  0
    1.5378   -3.9599   -9.2830 C   0  0  0  0  0  0  0  0  0  0  0  0
    1.3785   -4.6299   -8.0558 O   0  0  0  0  0  0  0  0  0  0  0  0
    1.3782   -5.3552   -6.8818 C   0  0  0  0  0  0  0  0  0  0  0  0
    1.0612   -6.4633   -7.4109 O   0  0  0  0  0  0  0  0  0  0  0  0
    1.6596   -6.0087   -5.5887 C   0  0  0  0  0  0  0  0  0  0  0  0
    2.6393   -5.2515   -4.7362 C   0  0  0  0  0  0  0  0  0  0  0  0
    2.1629   -5.0939   -3.3386 C   0  0  0  0  0  0  0  0  0  0  0  0
    1.4133   -6.0164   -2.7253 C   0  0  0  0  0  0  0  0  0  0  0  0
    0.7408   -7.0326   -3.5845 C   0  0  0  0  0  0  0  0  0  0  0  0
    0.3771   -6.3390   -4.8821 C   0  0  0  0  0  0  0  0  0  0  0  0
   -0.3841   -5.0938   -4.6713 C   0  0  0  0  0  0  0  0  0  0  0  0
   -0.9828   -5.2378   -5.7799 O   0  0  0  0  0  0  0  0  0  0  0  0
   -1.2459   -4.1103   -4.1749 O   0  0  0  0  0  0  0  0  0  0  0  0
   -2.2627   -3.1935   -3.7745 C   0  0  0  0  0  0  0  0  0  0  0  0
   -1.9538   -2.6944   -2.4605 N   0  0  0  0  0  0  0  0  0  0  0  0
   -3.1118   -2.0537   -1.8313 C   0  0  0  0  0  0  0  0  0  0  0  0
    0.8087   -0.9922   -4.8613 C   0  0  0  0  0  0  0  0  0  0  0  0
    1.8705   -0.5291   -4.0054 N   0  0  0  0  0  0  0  0  0  0  0  0
    1.6898   -1.1814   -2.7397 C   0  0  0  0  0  0  0  0  0  0  0  0
    2.9852   -1.5601   -2.2798 O   0  0  0  0  0  0  0  0  0  0  0  0
    4.2319   -1.6492   -1.6984 C   0  0  0  0  0  0  0  0  0  0  0  0
    4.9030   -1.6371   -2.7550 O   0  0  0  0  0  0  0  0  0  0  0  0
    5.4394   -1.5211   -0.8607 C   0  0  0  0  0  0  0  0  0  0  0  0
    6.6598   -1.2084   -1.6893 C   0  0  0  0  0  0  0  0  0  0  0  0
    7.8257   -1.2183   -0.7465 C   0  0  0  0  0  0  0  0  0  0  0  0
    7.9582   -2.2082    0.1454 C   0  0  0  0  0  0  0  0  0  0  0  0
    6.7244   -2.5866    0.9080 C   0  0  0  0  0  0  0  0  0  0  0  0
    5.6402   -2.8202   -0.1297 C   0  0  0  0  0  0  0  0  0  0  0  0
    1.2460    2.9026    5.1026 C   0  0  0  0  0  0  0  0  0  0  0  0
    2.1458    1.8768    5.6376 N   0  0  0  0  0  0  0  0  0  0  0  0
    2.4012    2.0531    7.0423 C   0  0  0  0  0  0  0  0  0  0  0  0
    3.2175    0.9553    7.4444 O   0  0  0  0  0  0  0  0  0  0  0  0
    4.1183   -0.0825    7.7057 C   0  0  0  0  0  0  0  0  0  0  0  0
    3.8511   -0.1977    8.9189 O   0  0  0  0  0  0  0  0  0  0  0  0
    5.1533   -1.1630    7.7113 C   0  0  0  0  0  0  0  0  0  0  0  0
    6.1271   -0.9403    8.8299 C   0  0  0  0  0  0  0  0  0  0  0  0
    5.7003   -1.5157   10.1206 C   0  0  0  0  0  0  0  0  0  0  0  0
    5.2080   -2.7599   10.0979 C   0  0  0  0  0  0  0  0  0  0  0  0
    4.1179   -2.9910    9.0951 C   0  0  0  0  0  0  0  0  0  0  0  0
    4.5055   -2.5162    7.7246 C   0  0  0  0  0  0  0  0  0  0  0  0
    3.2631   -2.4422    6.8935 C   0  0  0  0  0  0  0  0  0  0  0  0
    2.7562   -3.4023    7.5085 O   0  0  0  0  0  0  0  0  0  0  0  0
    2.2110   -2.2583    5.9905 O   0  0  0  0  0  0  0  0  0  0  0  0
    1.1054   -1.7534    5.2432 C   0  0  0  0  0  0  0  0  0  0  0  0
    0.0680   -2.7690    5.3445 N   0  0  0  0  0  0  0  0  0  0  0  0
   -1.2414   -2.2489    4.9626 C   0  0  0  0  0  0  0  0  0  0  0  0
    2.5140   -5.7762    1.6025 H   0  0  0  0  0  0  0  0  0  0  0  0
    1.6245   -4.9978    0.2814 H   0  0  0  0  0  0  0  0  0  0  0  0
    1.7112   -3.2463    2.4850 H   0  0  0  0  0  0  0  0  0  0  0  0
   -0.0666   -4.3371    0.4911 H   0  0  0  0  0  0  0  0  0  0  0  0
   -0.4967   -4.7197    2.0526 H   0  0  0  0  0  0  0  0  0  0  0  0
   -2.8591   -2.3393    2.0932 H   0  0  0  0  0  0  0  0  0  0  0  0
   -0.2971    0.3821    3.8538 H   0  0  0  0  0  0  0  0  0  0  0  0
    0.8061   -1.0877    0.7001 H   0  0  0  0  0  0  0  0  0  0  0  0
   -2.7672    0.9626    1.5658 H   0  0  0  0  0  0  0  0  0  0  0  0
   -2.2948    0.2601    0.1486 H   0  0  0  0  0  0  0  0  0  0  0  0
   -2.1084    2.5521    0.2643 H   0  0  0  0  0  0  0  0  0  0  0  0
   -0.5913    0.6817   -0.9279 H   0  0  0  0  0  0  0  0  0  0  0  0
    0.5810    1.8842   -0.3650 H   0  0  0  0  0  0  0  0  0  0  0  0
   -0.7035    5.1200   -4.0623 H   0  0  0  0  0  0  0  0  0  0  0  0
   -1.2187    3.2805   -5.5181 H   0  0  0  0  0  0  0  0  0  0  0  0
   -2.7200    2.8676   -4.5969 H   0  0  0  0  0  0  0  0  0  0  0  0
   -2.8278    4.2930   -6.9900 H   0  0  0  0  0  0  0  0  0  0  0  0
   -4.0939    6.2157   -6.2661 H   0  0  0  0  0  0  0  0  0  0  0  0
   -3.9485    6.9190   -3.8891 H   0  0  0  0  0  0  0  0  0  0  0  0
   -2.2624    6.9167   -4.4363 H   0  0  0  0  0  0  0  0  0  0  0  0
   -2.4860    5.7746   -2.3007 H   0  0  0  0  0  0  0  0  0  0  0  0
   -6.5617    2.6366   -2.1098 H   0  0  0  0  0  0  0  0  0  0  0  0
   -5.4369    2.5958   -0.7475 H   0  0  0  0  0  0  0  0  0  0  0  0
   -4.7059    0.5939   -1.2074 H   0  0  0  0  0  0  0  0  0  0  0  0
   -6.9182    0.6446   -1.3944 H   0  0  0  0  0  0  0  0  0  0  0  0
   -6.9156    0.9640   -3.0876 H   0  0  0  0  0  0  0  0  0  0  0  0
   -5.1569   -1.8780   -4.3597 H   0  0  0  0  0  0  0  0  0  0  0  0
   -5.2168   -4.5486   -1.9049 H   0  0  0  0  0  0  0  0  0  0  0  0
   -8.1167   -2.4382   -2.3298 H   0  0  0  0  0  0  0  0  0  0  0  0
   -7.1180   -3.3255    1.0022 H   0  0  0  0  0  0  0  0  0  0  0  0
   -5.4907   -2.7512    1.0345 H   0  0  0  0  0  0  0  0  0  0  0  0
   -7.5287   -0.9670    0.3127 H   0  0  0  0  0  0  0  0  0  0  0  0
   -8.3819   -1.3215    2.2796 H   0  0  0  0  0  0  0  0  0  0  0  0
   -7.0055   -2.3478    2.7176 H   0  0  0  0  0  0  0  0  0  0  0  0
   -6.2323    0.6343    6.1423 H   0  0  0  0  0  0  0  0  0  0  0  0
   -7.7649    2.3851    5.6244 H   0  0  0  0  0  0  0  0  0  0  0  0
   -6.4978    3.2765    4.6287 H   0  0  0  0  0  0  0  0  0  0  0  0
   -6.4033    4.1245    7.0089 H   0  0  0  0  0  0  0  0  0  0  0  0
   -5.2386    2.5997    8.4964 H   0  0  0  0  0  0  0  0  0  0  0  0
   -3.1607    2.1335    6.9067 H   0  0  0  0  0  0  0  0  0  0  0  0
   -4.1225    0.5717    7.1594 H   0  0  0  0  0  0  0  0  0  0  0  0
   -3.8710    0.8585    4.7368 H   0  0  0  0  0  0  0  0  0  0  0  0
   -4.0041    6.1331    5.5236 H   0  0  0  0  0  0  0  0  0  0  0  0
   -4.1284    6.2058    3.7547 H   0  0  0  0  0  0  0  0  0  0  0  0
   -2.0383    6.9216    4.3501 H   0  0  0  0  0  0  0  0  0  0  0  0
   -2.3384    6.1902    6.5451 H   0  0  0  0  0  0  0  0  0  0  0  0
   -2.0382    4.6058    5.9352 H   0  0  0  0  0  0  0  0  0  0  0  0
    0.9133    4.8460    7.7048 H   0  0  0  0  0  0  0  0  0  0  0  0
    3.3073    5.4297    5.0409 H   0  0  0  0  0  0  0  0  0  0  0  0
    0.7146    7.8773    5.7524 H   0  0  0  0  0  0  0  0  0  0  0  0
    1.6902    7.0279    2.2918 H   0  0  0  0  0  0  0  0  0  0  0  0
    0.0343    6.6836    2.6018 H   0  0  0  0  0  0  0  0  0  0  0  0
    0.2713    4.4804    2.5416 H   0  0  0  0  0  0  0  0  0  0  0  0
    0.3983    6.4879    0.6555 H   0  0  0  0  0  0  0  0  0  0  0  0
   -0.0306    4.7876    0.4017 H   0  0  0  0  0  0  0  0  0  0  0  0
    4.8291    5.5564   -1.7603 H   0  0  0  0  0  0  0  0  0  0  0  0
    6.4480    4.3561   -0.2753 H   0  0  0  0  0  0  0  0  0  0  0  0
    5.2212    5.2536    0.7366 H   0  0  0  0  0  0  0  0  0  0  0  0
    5.1498    2.9568    1.6741 H   0  0  0  0  0  0  0  0  0  0  0  0
    3.1612    1.9820    0.8079 H   0  0  0  0  0  0  0  0  0  0  0  0
    3.5911    1.4304   -1.7512 H   0  0  0  0  0  0  0  0  0  0  0  0
    2.5185    2.8764   -1.4095 H   0  0  0  0  0  0  0  0  0  0  0  0
    5.5194    2.9898   -1.9748 H   0  0  0  0  0  0  0  0  0  0  0  0
    2.2029    3.3512   -6.0659 H   0  0  0  0  0  0  0  0  0  0  0  0
    3.3246    4.6605   -6.4841 H   0  0  0  0  0  0  0  0  0  0  0  0
    3.9116    2.9832   -7.9049 H   0  0  0  0  0  0  0  0  0  0  0  0
    3.7247    1.3319   -5.5080 H   0  0  0  0  0  0  0  0  0  0  0  0
    4.5323    0.7736   -6.8395 H   0  0  0  0  0  0  0  0  0  0  0  0
    0.4106    1.8113   -6.4818 H   0  0  0  0  0  0  0  0  0  0  0  0
   -0.3327   -1.4512   -7.8871 H   0  0  0  0  0  0  0  0  0  0  0  0
    2.1933    0.6305   -9.4268 H   0  0  0  0  0  0  0  0  0  0  0  0
    2.7468   -3.0303   -7.3030 H   0  0  0  0  0  0  0  0  0  0  0  0
    3.8916   -2.0852   -8.0384 H   0  0  0  0  0  0  0  0  0  0  0  0
    2.6171   -2.4941  -10.1386 H   0  0  0  0  0  0  0  0  0  0  0  0
    1.5859   -4.6325  -10.1555 H   0  0  0  0  0  0  0  0  0  0  0  0
    0.6244   -3.3300   -9.4197 H   0  0  0  0  0  0  0  0  0  0  0  0
    2.1455   -6.9889   -5.8297 H   0  0  0  0  0  0  0  0  0  0  0  0
    3.6344   -5.7594   -4.6685 H   0  0  0  0  0  0  0  0  0  0  0  0
    2.8332   -4.2754   -5.2062 H   0  0  0  0  0  0  0  0  0  0  0  0
    2.7507   -4.4239   -2.7039 H   0  0  0  0  0  0  0  0  0  0  0  0
    0.8187   -5.6411   -1.8863 H   0  0  0  0  0  0  0  0  0  0  0  0
    1.4995   -7.8083   -3.8612 H   0  0  0  0  0  0  0  0  0  0  0  0
   -0.1354   -7.4924   -3.1055 H   0  0  0  0  0  0  0  0  0  0  0  0
   -0.1565   -7.0861   -5.4989 H   0  0  0  0  0  0  0  0  0  0  0  0
   -2.3983   -2.4088   -4.5327 H   0  0  0  0  0  0  0  0  0  0  0  0
   -3.2148   -3.7806   -3.7328 H   0  0  0  0  0  0  0  0  0  0  0  0
   -1.6326   -3.5242   -1.8947 H   0  0  0  0  0  0  0  0  0  0  0  0
   -2.9096   -2.1877   -0.7470 H   0  0  0  0  0  0  0  0  0  0  0  0
   -2.8704   -0.9827   -1.8815 H   0  0  0  0  0  0  0  0  0  0  0  0
    1.0478   -2.0627   -4.7913 H   0  0  0  0  0  0  0  0  0  0  0  0
   -0.1226   -0.9250   -4.2390 H   0  0  0  0  0  0  0  0  0  0  0  0
    1.7056    0.4978   -3.8504 H   0  0  0  0  0  0  0  0  0  0  0  0
    1.1292   -2.1397   -2.8633 H   0  0  0  0  0  0  0  0  0  0  0  0
    1.1489   -0.5821   -1.9929 H   0  0  0  0  0  0  0  0  0  0  0  0
    5.3619   -0.7201   -0.0940 H   0  0  0  0  0  0  0  0  0  0  0  0
    6.5401   -0.1844   -2.0894 H   0  0  0  0  0  0  0  0  0  0  0  0
    6.8811   -1.9676   -2.4545 H   0  0  0  0  0  0  0  0  0  0  0  0
    8.7648   -0.8514   -1.1714 H   0  0  0  0  0  0  0  0  0  0  0  0
    8.9292   -2.6712    0.3458 H   0  0  0  0  0  0  0  0  0  0  0  0
    6.4096   -1.7002    1.4931 H   0  0  0  0  0  0  0  0  0  0  0  0
    6.8905   -3.4766    1.5382 H   0  0  0  0  0  0  0  0  0  0  0  0
    6.0425   -3.5499   -0.8522 H   0  0  0  0  0  0  0  0  0  0  0  0
    0.2496    2.4605    5.2515 H   0  0  0  0  0  0  0  0  0  0  0  0
    1.3124    2.7425    4.0146 H   0  0  0  0  0  0  0  0  0  0  0  0
    3.0585    1.8765    5.1232 H   0  0  0  0  0  0  0  0  0  0  0  0
    2.9932    2.9664    7.2540 H   0  0  0  0  0  0  0  0  0  0  0  0
    1.4765    1.9782    7.6352 H   0  0  0  0  0  0  0  0  0  0  0  0
    5.7455   -1.1041    6.7625 H   0  0  0  0  0  0  0  0  0  0  0  0
    6.3187    0.1478    8.8966 H   0  0  0  0  0  0  0  0  0  0  0  0
    7.0921   -1.4404    8.5623 H   0  0  0  0  0  0  0  0  0  0  0  0
    6.1428   -1.1072   11.0306 H   0  0  0  0  0  0  0  0  0  0  0  0
    5.3005   -3.4208   10.9650 H   0  0  0  0  0  0  0  0  0  0  0  0
    3.9858   -4.1018    9.0560 H   0  0  0  0  0  0  0  0  0  0  0  0
    3.1638   -2.5807    9.4555 H   0  0  0  0  0  0  0  0  0  0  0  0
    5.1344   -3.3114    7.2660 H   0  0  0  0  0  0  0  0  0  0  0  0
    1.4708   -1.6084    4.2176 H   0  0  0  0  0  0  0  0  0  0  0  0
    0.6894   -0.8312    5.6766 H   0  0  0  0  0  0  0  0  0  0  0  0
   -0.0226   -2.9732    6.3547 H   0  0  0  0  0  0  0  0  0  0  0  0
   -1.7428   -3.2490    5.0745 H   0  0  0  0  0  0  0  0  0  0  0  0
   -1.7958   -1.7894    5.8218 H   0  0  0  0  0  0  0  0  0  0  0  0
  1  2  2  0
  2  3  1  0
  3  4  1  0
  4  5  1  0
  5  6  1  0
  6  7  1  0
  7  8  2  0
  8  9  1  0
  9 10  2  0
 10 11  1  0
 11 12  2  0
 11 13  1  0
 13 14  1  0
 14 15  1  0
 15 16  1  0
 16 17  1  0
 17 18  2  0
 17 19  1  0
 19 20  1  0
 20 21  1  0
 21 22  2  0
 22 23  1  0
 23 24  1  0
 24 25  1  0
 25 26  2  0
 25 27  1  0
 27 28  1  0
 28 29  1  0
 29 30  1  0
 30 31  1  0
 31 32  1  0
 32 33  2  0
 33 34  1  0
 34 35  2  0
 35 36  1  0
 35 37  1  0
 37 38  1  0
 38 39  1  0
 39 40  1  0
 40 41  1  0
 41 42  2  0
 41 43  1  0
 43 44  1  0
 44 45  1  0
 45 46  2  0
 46 47  1  0
 47 48  1  0
 48 49  1  0
 49 50  2  0
 49 51  1  0
 51 52  1  0
 52 53  1  0
 53 54  1  0
 54 55  1  0
 55 56  1  0
 56 57  2  0
 57 58  1  0
 58 59  2  0
 59 60  1  0
 59 61  1  0
 61 62  1  0
 62 63  1  0
 63 64  1  0
 64 65  1  0
 65 66  2  0
 65 67  1  0
 67 68  1  0
 68 69  1  0
 69 70  2  0
 70 71  1  0
 71 72  1  0
 72 73  1  0
 73 74  2  0
 73 75  1  0
 75 76  1  0
 76 77  1  0
 77 78  1  0
 78 79  1  0
 79 80  2  0
 80 81  1  0
 81 82  2  0
 82 83  1  0
 83 84  2  0
 83 85  1  0
 85 86  1  0
 86 87  1  0
 87 88  1  0
 88 89  1  0
 89 90  2  0
 89 91  1  0
 91 92  1  0
 92 93  1  0
 93 94  2  0
 94 95  1  0
 95 96  1  0
 96 97  1  0
 97 98  2  0
 97 99  1  0
 99100  1  0
100101  1  0
101102  1  0
 81103  1  0
103104  1  0
104105  1  0
105106  1  0
106107  1  0
107108  2  0
107109  1  0
109110  1  0
110111  1  0
111112  2  0
112113  1  0
113114  1  0
 57115  1  0
115116  1  0
116117  1  0
117118  1  0
118119  1  0
119120  2  0
119121  1  0
121122  1  0
122123  1  0
123124  2  0
124125  1  0
125126  1  0
126127  1  0
127128  2  0
127129  1  0
129130  1  0
130131  1  0
131132  1  0
114  2  1  0
126121  1  0
 12  7  1  0
 24 19  1  0
 36 31  2  0
 48 43  1  0
 60 55  2  0
 72 67  1  0
 84 79  1  0
 96 91  1  0
114109  1  0
132  9  1  0
102 33  1  0
  4133  1  0
  4134  1  0
  5135  1  0
  6136  1  0
  6137  1  0
  8138  1  0
 10139  1  0
 12140  1  0
 13141  1  0
 13142  1  0
 14143  1  0
 15144  1  0
 15145  1  0
 19146  1  0
 20147  1  0
 20148  1  0
 21149  1  0
 22150  1  0
 23151  1  0
 23152  1  0
 24153  1  0
 28154  1  0
 28155  1  0
 29156  1  0
 30157  1  0
 30158  1  0
 32159  1  0
 34160  1  0
 36161  1  0
 37162  1  0
 37163  1  0
 38164  1  0
 39165  1  0
 39166  1  0
 43167  1  0
 44168  1  0
 44169  1  0
 45170  1  0
 46171  1  0
 47172  1  0
 47173  1  0
 48174  1  0
 52175  1  0
 52176  1  0
 53177  1  0
 54178  1  0
 54179  1  0
 56180  1  0
 58181  1  0
 60182  1  0
 61183  1  0
 61184  1  0
 62185  1  0
 63186  1  0
 63187  1  0
 67188  1  0
 68189  1  0
 68190  1  0
 69191  1  0
 70192  1  0
 71193  1  0
 71194  1  0
 72195  1  0
 76196  1  0
 76197  1  0
 77198  1  0
 78199  1  0
 78200  1  0
 80201  1  0
 82202  1  0
 84203  1  0
 85204  1  0
 85205  1  0
 86206  1  0
 87207  1  0
 87208  1  0
 91209  1  0
 92210  1  0
 92211  1  0
 93212  1  0
 94213  1  0
 95214  1  0
 95215  1  0
 96216  1  0
100217  1  0
100218  1  0
101219  1  0
102220  1  0
102221  1  0
103222  1  0
103223  1  0
104224  1  0
105225  1  0
105226  1  0
109227  1  0
110228  1  0
110229  1  0
111230  1  0
112231  1  0
113232  1  0
113233  1  0
114234  1  0
115235  1  0
115236  1  0
116237  1  0
117238  1  0
117239  1  0
121240  1  0
122241  1  0
122242  1  0
123243  1  0
124244  1  0
125245  1  0
125246  1  0
126247  1  0
130248  1  0
130249  1  0
131250  1  0
132251  1  0
132252  1  0
M  END
