
     RDKit          3D

300324  0  0  0  0  0  0  0  0999 V2000
   -5.4088    6.4879   -0.5270 C   0  0  0  0  0  0  0  0  0  0  0  0
   -6.3097    5.4565   -0.3737 C   0  0  0  0  0  0  0  0  0  0  0  0
   -6.6171    4.6169   -1.4365 C   0  0  0  0  0  0  0  0  0  0  0  0
   -5.8745    4.6484   -2.5971 C   0  0  0  0  0  0  0  0  0  0  0  0
   -4.7747    5.4858   -2.6382 C   0  0  0  0  0  0  0  0  0  0  0  0
   -4.6919    6.5138   -1.7153 C   0  0  0  0  0  0  0  0  0  0  0  0
   -5.8630    3.4855   -3.5322 C   0  0  0  0  0  0  0  0  0  0  0  0
   -5.4580    3.8693   -4.8280 O   0  0  0  0  0  0  0  0  0  0  0  0
   -4.6780    2.9821   -5.5723 C   0  0  0  0  0  0  0  0  0  0  0  0
   -3.5303    3.4192   -6.2308 C   0  0  0  0  0  0  0  0  0  0  0  0
   -2.9576    2.6902   -7.2720 C   0  0  0  0  0  0  0  0  0  0  0  0
   -3.2768    1.3374   -7.2267 C   0  0  0  0  0  0  0  0  0  0  0  0
   -2.8976    0.3303   -8.0663 C   0  0  0  0  0  0  0  0  0  0  0  0
   -4.0078   -0.4709   -8.2564 C   0  0  0  0  0  0  0  0  0  0  0  0
   -4.7388   -0.2806   -7.1299 N   0  0  0  0  0  0  0  0  0  0  0  0
   -5.4771   -0.2837   -5.9224 N   0  0  0  0  0  0  0  0  0  0  0  0
   -6.1220   -0.6133   -4.6488 C   0  0  0  0  0  0  0  0  0  0  0  0
   -7.2820   -1.5991   -4.8469 C   0  0  0  0  0  0  0  0  0  0  0  0
   -7.2045   -2.9787   -5.2010 C   0  0  0  0  0  0  0  0  0  0  0  0
   -7.4839   -3.9391   -4.1736 C   0  0  0  0  0  0  0  0  0  0  0  0
   -8.8094   -3.5824   -3.7742 C   0  0  0  0  0  0  0  0  0  0  0  0
   -9.0421   -2.2433   -3.3322 C   0  0  0  0  0  0  0  0  0  0  0  0
   -8.6628   -1.4920   -4.4847 C   0  0  0  0  0  0  0  0  0  0  0  0
   -9.4635   -1.7279   -1.9476 C   0  0  0  0  0  0  0  0  0  0  0  0
   -8.3940   -1.3331   -1.1147 N   0  0  0  0  0  0  0  0  0  0  0  0
   -8.5493   -1.9189    0.2267 C   0  0  0  0  0  0  0  0  0  0  0  0
   -7.3942   -1.6430    1.1081 C   0  0  0  0  0  0  0  0  0  0  0  0
   -7.7389   -1.2015    2.4827 C   0  0  0  0  0  0  0  0  0  0  0  0
   -7.9439   -0.6413    3.7402 C   0  0  0  0  0  0  0  0  0  0  0  0
   -6.9259   -1.1383    4.4946 N   0  0  0  0  0  0  0  0  0  0  0  0
   -5.7436   -1.4268    5.2194 N   0  0  0  0  0  0  0  0  0  0  0  0
   -4.4525   -1.2578    5.8893 C   0  0  0  0  0  0  0  0  0  0  0  0
   -3.4943   -0.4981    4.9708 C   0  0  0  0  0  0  0  0  0  0  0  0
   -2.5635   -1.0110    4.0143 C   0  0  0  0  0  0  0  0  0  0  0  0
   -1.2642   -0.4162    4.0248 C   0  0  0  0  0  0  0  0  0  0  0  0
   -1.1120   -0.1153    5.4123 C   0  0  0  0  0  0  0  0  0  0  0  0
   -1.8699    1.0297    5.8181 C   0  0  0  0  0  0  0  0  0  0  0  0
   -3.0735    0.8648    5.0674 C   0  0  0  0  0  0  0  0  0  0  0  0
   -1.5479    2.1263    6.8259 C   0  0  0  0  0  0  0  0  0  0  0  0
   -1.4459    3.4432    6.2065 N   0  0  0  0  0  0  0  0  0  0  0  0
   -1.6663    4.6677    5.5348 N   0  0  0  0  0  0  0  0  0  0  0  0
   -2.0181    5.7556    4.8029 C   0  0  0  0  0  0  0  0  0  0  0  0
   -0.9444    5.9246    3.9429 C   0  0  0  0  0  0  0  0  0  0  0  0
    0.1039    6.0965    2.8990 C   0  0  0  0  0  0  0  0  0  0  0  0
   -0.6720    6.1915    1.5830 C   0  0  0  0  0  0  0  0  0  0  0  0
    0.1396    5.7096    0.5003 N   0  0  0  0  0  0  0  0  0  0  0  0
   -0.6043    5.1600   -0.5981 C   0  0  0  0  0  0  0  0  0  0  0  0
   -0.0855    3.8028   -1.0633 C   0  0  0  0  0  0  0  0  0  0  0  0
    1.1477    3.5901   -1.7516 C   0  0  0  0  0  0  0  0  0  0  0  0
    2.1628    3.0711   -0.8907 C   0  0  0  0  0  0  0  0  0  0  0  0
    1.6071    1.8296   -0.4525 C   0  0  0  0  0  0  0  0  0  0  0  0
    0.4204    1.4773   -1.1522 C   0  0  0  0  0  0  0  0  0  0  0  0
   -0.4644    2.4839   -0.6729 C   0  0  0  0  0  0  0  0  0  0  0  0
    0.2331    0.5259   -2.3499 C   0  0  0  0  0  0  0  0  0  0  0  0
   -0.9959   -0.1863   -2.2884 N   0  0  0  0  0  0  0  0  0  0  0  0
   -2.3371   -0.5052   -1.9905 N   0  0  0  0  0  0  0  0  0  0  0  0
   -3.5173   -0.6902   -1.3936 C   0  0  0  0  0  0  0  0  0  0  0  0
   -3.7391   -2.0372   -1.4533 C   0  0  0  0  0  0  0  0  0  0  0  0
   -4.1529   -3.4520   -1.4282 C   0  0  0  0  0  0  0  0  0  0  0  0
   -5.5720   -3.6861   -1.8584 C   0  0  0  0  0  0  0  0  0  0  0  0
   -5.9061   -4.8887   -2.4578 N   0  0  0  0  0  0  0  0  0  0  0  0
   -6.6102   -5.0675   -3.6146 C   0  0  0  0  0  0  0  0  0  0  0  0
   -2.9362   -2.5084   -2.4442 C   0  0  0  0  0  0  0  0  0  0  0  0
   -3.3457   -3.2799   -3.5278 C   0  0  0  0  0  0  0  0  0  0  0  0
   -2.2745   -3.8150   -4.2425 C   0  0  0  0  0  0  0  0  0  0  0  0
   -1.0752   -3.0984   -4.2579 C   0  0  0  0  0  0  0  0  0  0  0  0
   -1.1748   -1.8069   -3.7403 C   0  0  0  0  0  0  0  0  0  0  0  0
   -1.8230   -1.6559   -2.5037 C   0  0  0  0  0  0  0  0  0  0  0  0
   -0.0741   -3.4567   -5.1622 O   0  0  0  0  0  0  0  0  0  0  0  0
   -0.2855   -4.6215   -5.9563 C   0  0  0  0  0  0  0  0  0  0  0  0
    0.9625   -5.2009   -6.4778 C   0  0  0  0  0  0  0  0  0  0  0  0
    1.5790   -6.2192   -5.7566 C   0  0  0  0  0  0  0  0  0  0  0  0
    2.7099   -6.8311   -6.2704 C   0  0  0  0  0  0  0  0  0  0  0  0
    2.9503   -6.8138   -7.6298 C   0  0  0  0  0  0  0  0  0  0  0  0
    2.0626   -6.0809   -8.4074 C   0  0  0  0  0  0  0  0  0  0  0  0
    1.0160   -5.3907   -7.8559 C   0  0  0  0  0  0  0  0  0  0  0  0
    3.3817    3.8439   -0.4106 C   0  0  0  0  0  0  0  0  0  0  0  0
    4.4357    3.8897   -1.4251 N   0  0  0  0  0  0  0  0  0  0  0  0
    5.2861    4.0011   -2.5495 N   0  0  0  0  0  0  0  0  0  0  0  0
    5.9864    4.1069   -3.7090 C   0  0  0  0  0  0  0  0  0  0  0  0
    6.8912    3.0504   -3.6151 C   0  0  0  0  0  0  0  0  0  0  0  0
    7.7156    1.8539   -3.7835 C   0  0  0  0  0  0  0  0  0  0  0  0
    7.4412    1.3279   -5.1948 C   0  0  0  0  0  0  0  0  0  0  0  0
    6.2122    1.9179   -5.7234 N   0  0  0  0  0  0  0  0  0  0  0  0
    5.0348    1.1952   -5.2450 C   0  0  0  0  0  0  0  0  0  0  0  0
    4.6658    0.0959   -6.2526 C   0  0  0  0  0  0  0  0  0  0  0  0
    3.7172    0.1329   -7.3197 C   0  0  0  0  0  0  0  0  0  0  0  0
    2.4976   -0.5495   -7.0220 C   0  0  0  0  0  0  0  0  0  0  0  0
    2.9688   -1.8922   -6.8928 C   0  0  0  0  0  0  0  0  0  0  0  0
    3.9102   -2.1405   -5.8434 C   0  0  0  0  0  0  0  0  0  0  0  0
    4.9898   -1.2966   -6.2439 C   0  0  0  0  0  0  0  0  0  0  0  0
    3.7166   -2.8617   -4.5004 C   0  0  0  0  0  0  0  0  0  0  0  0
    3.2385   -2.0013   -3.4619 N   0  0  0  0  0  0  0  0  0  0  0  0
    2.6816   -2.8651   -2.4338 C   0  0  0  0  0  0  0  0  0  0  0  0
    3.1666   -2.4573   -1.0364 C   0  0  0  0  0  0  0  0  0  0  0  0
    2.0573   -2.7412   -0.1249 C   0  0  0  0  0  0  0  0  0  0  0  0
    0.8930   -3.1476    0.5238 C   0  0  0  0  0  0  0  0  0  0  0  0
    0.6997   -2.1545    1.4268 N   0  0  0  0  0  0  0  0  0  0  0  0
    0.3442   -1.1054    2.3085 N   0  0  0  0  0  0  0  0  0  0  0  0
   -0.4180    0.0333    2.8282 C   0  0  0  0  0  0  0  0  0  0  0  0
    1.8807   -1.5693    1.7541 C   0  0  0  0  0  0  0  0  0  0  0  0
    2.3577   -1.4918    3.0646 C   0  0  0  0  0  0  0  0  0  0  0  0
    3.7199   -1.6423    3.3002 C   0  0  0  0  0  0  0  0  0  0  0  0
    4.5765   -1.8909    2.2339 C   0  0  0  0  0  0  0  0  0  0  0  0
    4.1120   -1.9857    0.9251 C   0  0  0  0  0  0  0  0  0  0  0  0
    2.7599   -1.9534    0.7461 C   0  0  0  0  0  0  0  0  0  0  0  0
    4.0524   -2.1541    4.5585 O   0  0  0  0  0  0  0  0  0  0  0  0
    3.2532   -3.1778    5.0962 C   0  0  0  0  0  0  0  0  0  0  0  0
    2.4257   -2.7356    6.2390 C   0  0  0  0  0  0  0  0  0  0  0  0
    1.3691   -3.5589    6.6084 C   0  0  0  0  0  0  0  0  0  0  0  0
    0.5526   -3.1930    7.6697 C   0  0  0  0  0  0  0  0  0  0  0  0
    0.8779   -2.1384    8.5134 C   0  0  0  0  0  0  0  0  0  0  0  0
    2.0760   -1.4852    8.2773 C   0  0  0  0  0  0  0  0  0  0  0  0
    2.8845   -1.8650    7.2167 C   0  0  0  0  0  0  0  0  0  0  0  0
    1.1211    0.0092   -6.6172 C   0  0  0  0  0  0  0  0  0  0  0  0
    0.0519   -0.6566   -7.3090 N   0  0  0  0  0  0  0  0  0  0  0  0
   -0.5252    0.0710   -8.3937 C   0  0  0  0  0  0  0  0  0  0  0  0
   -1.6102    1.0523   -7.9448 C   0  0  0  0  0  0  0  0  0  0  0  0
    7.0734    2.7644   -2.2918 C   0  0  0  0  0  0  0  0  0  0  0  0
    8.2654    2.4571   -1.7105 C   0  0  0  0  0  0  0  0  0  0  0  0
    8.5323    3.0299   -0.4703 C   0  0  0  0  0  0  0  0  0  0  0  0
    7.6046    3.8288    0.1873 C   0  0  0  0  0  0  0  0  0  0  0  0
    6.3488    4.0368   -0.3740 C   0  0  0  0  0  0  0  0  0  0  0  0
    6.0624    3.4187   -1.5948 C   0  0  0  0  0  0  0  0  0  0  0  0
    8.1577    4.8128    1.0132 O   0  0  0  0  0  0  0  0  0  0  0  0
    8.5698    4.5731    2.3344 C   0  0  0  0  0  0  0  0  0  0  0  0
    7.5957    3.6529    2.9757 C   0  0  0  0  0  0  0  0  0  0  0  0
    6.3296    4.1317    3.2768 C   0  0  0  0  0  0  0  0  0  0  0  0
    5.2536    3.2536    3.2721 C   0  0  0  0  0  0  0  0  0  0  0  0
    5.3659    1.9292    2.9413 C   0  0  0  0  0  0  0  0  0  0  0  0
    6.6470    1.4452    2.7217 C   0  0  0  0  0  0  0  0  0  0  0  0
    7.7378    2.2865    2.8403 C   0  0  0  0  0  0  0  0  0  0  0  0
    0.1465    5.4503    4.6156 C   0  0  0  0  0  0  0  0  0  0  0  0
    1.4369    5.9628    4.6751 C   0  0  0  0  0  0  0  0  0  0  0  0
    2.2892    5.2268    5.4961 C   0  0  0  0  0  0  0  0  0  0  0  0
    1.8151    4.3407    6.4576 C   0  0  0  0  0  0  0  0  0  0  0  0
    0.4472    4.4108    6.7019 C   0  0  0  0  0  0  0  0  0  0  0  0
   -0.3163    4.5135    5.5359 C   0  0  0  0  0  0  0  0  0  0  0  0
    2.6436    3.7978    7.4400 O   0  0  0  0  0  0  0  0  0  0  0  0
    3.7207    2.9983    6.9745 C   0  0  0  0  0  0  0  0  0  0  0  0
    4.7040    2.7121    8.0648 C   0  0  0  0  0  0  0  0  0  0  0  0
    4.4550    1.7065    8.9911 C   0  0  0  0  0  0  0  0  0  0  0  0
    5.4376    0.8011    9.3727 C   0  0  0  0  0  0  0  0  0  0  0  0
    6.6752    0.9506    8.7593 C   0  0  0  0  0  0  0  0  0  0  0  0
    7.0551    2.2206    8.3569 C   0  0  0  0  0  0  0  0  0  0  0  0
    6.0406    3.0717    7.9383 C   0  0  0  0  0  0  0  0  0  0  0  0
   -6.4357   -2.2719    3.9284 C   0  0  0  0  0  0  0  0  0  0  0  0
   -6.2269   -3.4713    4.6107 C   0  0  0  0  0  0  0  0  0  0  0  0
   -5.8840   -4.5314    3.7744 C   0  0  0  0  0  0  0  0  0  0  0  0
   -6.6724   -4.6555    2.6325 C   0  0  0  0  0  0  0  0  0  0  0  0
   -7.5051   -3.6203    2.1988 C   0  0  0  0  0  0  0  0  0  0  0  0
   -7.1655   -2.4063    2.7514 C   0  0  0  0  0  0  0  0  0  0  0  0
   -5.0692   -5.5596    4.2309 O   0  0  0  0  0  0  0  0  0  0  0  0
   -3.7266   -5.7229    3.7834 C   0  0  0  0  0  0  0  0  0  0  0  0
   -2.9240   -6.4918    4.7553 C   0  0  0  0  0  0  0  0  0  0  0  0
   -3.4609   -7.6037    5.3802 C   0  0  0  0  0  0  0  0  0  0  0  0
   -2.8370   -8.1714    6.4716 C   0  0  0  0  0  0  0  0  0  0  0  0
   -1.5779   -7.7298    6.8554 C   0  0  0  0  0  0  0  0  0  0  0  0
   -0.8789   -6.8892    6.0038 C   0  0  0  0  0  0  0  0  0  0  0  0
   -1.5806   -6.2389    5.0008 C   0  0  0  0  0  0  0  0  0  0  0  0
   -4.3825    0.8758   -6.5148 C   0  0  0  0  0  0  0  0  0  0  0  0
   -5.2907    1.8787   -6.1600 C   0  0  0  0  0  0  0  0  0  0  0  0
   -5.1864    7.1821    0.2772 H   0  0  0  0  0  0  0  0  0  0  0  0
   -6.6380    5.2276    0.6391 H   0  0  0  0  0  0  0  0  0  0  0  0
   -7.2173    3.7442   -1.1735 H   0  0  0  0  0  0  0  0  0  0  0  0
   -3.8543    5.2149   -3.1569 H   0  0  0  0  0  0  0  0  0  0  0  0
   -3.9805    7.3155   -1.8381 H   0  0  0  0  0  0  0  0  0  0  0  0
   -6.8663    3.0312   -3.5537 H   0  0  0  0  0  0  0  0  0  0  0  0
   -5.1564    2.7446   -3.1248 H   0  0  0  0  0  0  0  0  0  0  0  0
   -3.1555    4.4176   -6.0213 H   0  0  0  0  0  0  0  0  0  0  0  0
   -2.8878    3.2388   -8.2159 H   0  0  0  0  0  0  0  0  0  0  0  0
   -4.2384   -1.1184   -9.0892 H   0  0  0  0  0  0  0  0  0  0  0  0
   -4.6008    0.0207   -5.4177 H   0  0  0  0  0  0  0  0  0  0  0  0
   -5.4054   -0.9407   -3.8857 H   0  0  0  0  0  0  0  0  0  0  0  0
   -6.4526    0.3636   -4.2917 H   0  0  0  0  0  0  0  0  0  0  0  0
   -6.9526   -3.2936   -6.2243 H   0  0  0  0  0  0  0  0  0  0  0  0
   -9.6454   -4.2947   -3.8659 H   0  0  0  0  0  0  0  0  0  0  0  0
   -9.3476   -0.8149   -5.0074 H   0  0  0  0  0  0  0  0  0  0  0  0
  -10.0979   -2.4433   -1.4104 H   0  0  0  0  0  0  0  0  0  0  0  0
  -10.1695   -0.8628   -2.0378 H   0  0  0  0  0  0  0  0  0  0  0  0
   -8.2216   -0.3010   -1.0556 H   0  0  0  0  0  0  0  0  0  0  0  0
   -9.4592   -1.4752    0.6891 H   0  0  0  0  0  0  0  0  0  0  0  0
   -8.7008   -2.9932   -0.0515 H   0  0  0  0  0  0  0  0  0  0  0  0
   -6.5000   -2.2512    1.0089 H   0  0  0  0  0  0  0  0  0  0  0  0
   -6.9939   -0.6787    0.6710 H   0  0  0  0  0  0  0  0  0  0  0  0
   -8.5597    0.2246    3.9710 H   0  0  0  0  0  0  0  0  0  0  0  0
   -5.2501   -1.6163    4.3046 H   0  0  0  0  0  0  0  0  0  0  0  0
   -4.6499   -0.7813    6.8401 H   0  0  0  0  0  0  0  0  0  0  0  0
   -4.1221   -2.2650    6.1573 H   0  0  0  0  0  0  0  0  0  0  0  0
   -2.8306   -1.8145    3.3217 H   0  0  0  0  0  0  0  0  0  0  0  0
   -0.4025   -0.6393    6.0516 H   0  0  0  0  0  0  0  0  0  0  0  0
   -3.6530    1.6847    4.6374 H   0  0  0  0  0  0  0  0  0  0  0  0
   -2.2681    2.1973    7.6502 H   0  0  0  0  0  0  0  0  0  0  0  0
   -0.5863    2.0027    7.3205 H   0  0  0  0  0  0  0  0  0  0  0  0
   -0.7501    3.1769    5.4599 H   0  0  0  0  0  0  0  0  0  0  0  0
   -2.9288    6.3474    4.8663 H   0  0  0  0  0  0  0  0  0  0  0  0
    0.6257    7.0562    2.9587 H   0  0  0  0  0  0  0  0  0  0  0  0
    0.7376    5.2119    2.7660 H   0  0  0  0  0  0  0  0  0  0  0  0
   -0.9227    7.2555    1.3408 H   0  0  0  0  0  0  0  0  0  0  0  0
   -1.6354    5.6615    1.6311 H   0  0  0  0  0  0  0  0  0  0  0  0
    0.8197    6.4346    0.1538 H   0  0  0  0  0  0  0  0  0  0  0  0
   -0.7329    5.8735   -1.4521 H   0  0  0  0  0  0  0  0  0  0  0  0
   -1.6507    5.1112   -0.2348 H   0  0  0  0  0  0  0  0  0  0  0  0
    1.2801    3.7572   -2.8221 H   0  0  0  0  0  0  0  0  0  0  0  0
    2.1533    1.1057    0.1568 H   0  0  0  0  0  0  0  0  0  0  0  0
   -1.4435    2.2363   -0.2532 H   0  0  0  0  0  0  0  0  0  0  0  0
    0.3489    1.0654   -3.3172 H   0  0  0  0  0  0  0  0  0  0  0  0
    0.9811   -0.2629   -2.3706 H   0  0  0  0  0  0  0  0  0  0  0  0
   -0.6914   -1.0809   -1.8707 H   0  0  0  0  0  0  0  0  0  0  0  0
   -4.1871    0.0966   -1.0392 H   0  0  0  0  0  0  0  0  0  0  0  0
   -3.4114   -4.1888   -1.6950 H   0  0  0  0  0  0  0  0  0  0  0  0
   -4.1797   -3.6529   -0.3132 H   0  0  0  0  0  0  0  0  0  0  0  0
   -6.2657   -3.6480   -0.9709 H   0  0  0  0  0  0  0  0  0  0  0  0
   -5.8660   -2.7480   -2.3928 H   0  0  0  0  0  0  0  0  0  0  0  0
   -5.9891   -5.6510   -1.7650 H   0  0  0  0  0  0  0  0  0  0  0  0
   -7.1955   -6.0246   -3.5283 H   0  0  0  0  0  0  0  0  0  0  0  0
   -5.8731   -5.4197   -4.3864 H   0  0  0  0  0  0  0  0  0  0  0  0
   -4.2448   -3.0528   -4.1077 H   0  0  0  0  0  0  0  0  0  0  0  0
   -2.5639   -4.4665   -5.0696 H   0  0  0  0  0  0  0  0  0  0  0  0
   -0.7293   -0.9962   -4.2788 H   0  0  0  0  0  0  0  0  0  0  0  0
   -1.0115   -4.3330   -6.7370 H   0  0  0  0  0  0  0  0  0  0  0  0
   -0.7925   -5.4200   -5.3571 H   0  0  0  0  0  0  0  0  0  0  0  0
    1.3525   -6.4200   -4.7243 H   0  0  0  0  0  0  0  0  0  0  0  0
    3.2379   -7.5804   -5.6922 H   0  0  0  0  0  0  0  0  0  0  0  0
    3.8396   -7.2749   -8.0356 H   0  0  0  0  0  0  0  0  0  0  0  0
    2.1551   -6.2215   -9.4810 H   0  0  0  0  0  0  0  0  0  0  0  0
    0.3789   -4.8020   -8.5177 H   0  0  0  0  0  0  0  0  0  0  0  0
    3.1610    4.8419   -0.0022 H   0  0  0  0  0  0  0  0  0  0  0  0
    3.8989    3.3633    0.4365 H   0  0  0  0  0  0  0  0  0  0  0  0
    4.7916    2.9076   -1.2760 H   0  0  0  0  0  0  0  0  0  0  0  0
    5.9769    4.9419   -4.3853 H   0  0  0  0  0  0  0  0  0  0  0  0
    8.7842    2.0488   -3.7897 H   0  0  0  0  0  0  0  0  0  0  0  0
    7.3344    1.0577   -3.1472 H   0  0  0  0  0  0  0  0  0  0  0  0
    7.3985    0.2237   -5.2245 H   0  0  0  0  0  0  0  0  0  0  0  0
    8.2349    1.6226   -5.9102 H   0  0  0  0  0  0  0  0  0  0  0  0
    6.2465    1.8026   -6.7641 H   0  0  0  0  0  0  0  0  0  0  0  0
    5.2992    0.8121   -4.2584 H   0  0  0  0  0  0  0  0  0  0  0  0
    4.2143    1.8864   -5.0330 H   0  0  0  0  0  0  0  0  0  0  0  0
    3.8478    0.7457   -8.2161 H   0  0  0  0  0  0  0  0  0  0  0  0
    2.5959   -2.7027   -7.5325 H   0  0  0  0  0  0  0  0  0  0  0  0
    6.0021   -1.6700   -6.4275 H   0  0  0  0  0  0  0  0  0  0  0  0
    4.6405   -3.4301   -4.2191 H   0  0  0  0  0  0  0  0  0  0  0  0
    2.9990   -3.6902   -4.5799 H   0  0  0  0  0  0  0  0  0  0  0  0
    3.9287   -1.3230   -3.0986 H   0  0  0  0  0  0  0  0  0  0  0  0
    2.8379   -3.9337   -2.6310 H   0  0  0  0  0  0  0  0  0  0  0  0
    1.5748   -2.7019   -2.4792 H   0  0  0  0  0  0  0  0  0  0  0  0
    3.3454   -1.3860   -1.1613 H   0  0  0  0  0  0  0  0  0  0  0  0
    4.0454   -3.1002   -0.9271 H   0  0  0  0  0  0  0  0  0  0  0  0
    0.1868   -3.9110    0.2652 H   0  0  0  0  0  0  0  0  0  0  0  0
    1.0034   -0.4705    1.7835 H   0  0  0  0  0  0  0  0  0  0  0  0
   -0.9969    0.5475    2.0467 H   0  0  0  0  0  0  0  0  0  0  0  0
    0.3447    0.7672    3.0876 H   0  0  0  0  0  0  0  0  0  0  0  0
    1.7756   -1.1437    3.8893 H   0  0  0  0  0  0  0  0  0  0  0  0
    5.6237   -2.0499    2.4152 H   0  0  0  0  0  0  0  0  0  0  0  0
    4.7754   -1.6090    0.1881 H   0  0  0  0  0  0  0  0  0  0  0  0
    3.9036   -4.0151    5.4243 H   0  0  0  0  0  0  0  0  0  0  0  0
    2.5487   -3.5873    4.3332 H   0  0  0  0  0  0  0  0  0  0  0  0
    1.0260   -4.3344    5.9270 H   0  0  0  0  0  0  0  0  0  0  0  0
   -0.4414   -3.5961    7.7395 H   0  0  0  0  0  0  0  0  0  0  0  0
    0.0827   -1.5393    8.9492 H   0  0  0  0  0  0  0  0  0  0  0  0
    2.3289   -0.6444    8.8972 H   0  0  0  0  0  0  0  0  0  0  0  0
    3.8974   -1.4881    7.1570 H   0  0  0  0  0  0  0  0  0  0  0  0
    0.9917    1.0494   -6.9412 H   0  0  0  0  0  0  0  0  0  0  0  0
    1.0034    0.0533   -5.5224 H   0  0  0  0  0  0  0  0  0  0  0  0
   -0.7156   -0.9921   -6.7071 H   0  0  0  0  0  0  0  0  0  0  0  0
   -0.9648   -0.6793   -9.0989 H   0  0  0  0  0  0  0  0  0  0  0  0
    0.2880    0.5617   -8.9457 H   0  0  0  0  0  0  0  0  0  0  0  0
   -1.3372    1.2911   -6.9086 H   0  0  0  0  0  0  0  0  0  0  0  0
   -1.4928    1.8764   -8.6643 H   0  0  0  0  0  0  0  0  0  0  0  0
    8.7604    1.5354   -1.8749 H   0  0  0  0  0  0  0  0  0  0  0  0
    9.3931    2.7333    0.1301 H   0  0  0  0  0  0  0  0  0  0  0  0
    5.8071    4.8828   -0.0017 H   0  0  0  0  0  0  0  0  0  0  0  0
    9.6076    4.2177    2.4126 H   0  0  0  0  0  0  0  0  0  0  0  0
    8.4965    5.5418    2.8816 H   0  0  0  0  0  0  0  0  0  0  0  0
    6.1873    5.2099    3.3651 H   0  0  0  0  0  0  0  0  0  0  0  0
    4.2758    3.7122    3.3995 H   0  0  0  0  0  0  0  0  0  0  0  0
    4.4902    1.4600    2.4894 H   0  0  0  0  0  0  0  0  0  0  0  0
    6.7561    0.5311    2.1483 H   0  0  0  0  0  0  0  0  0  0  0  0
    8.7298    1.8984    2.6724 H   0  0  0  0  0  0  0  0  0  0  0  0
    1.6328    7.0387    4.7002 H   0  0  0  0  0  0  0  0  0  0  0  0
    3.3522    5.3458    5.4293 H   0  0  0  0  0  0  0  0  0  0  0  0
    0.0136    4.2928    7.6805 H   0  0  0  0  0  0  0  0  0  0  0  0
    4.2502    3.6300    6.2193 H   0  0  0  0  0  0  0  0  0  0  0  0
    3.3523    2.0437    6.5473 H   0  0  0  0  0  0  0  0  0  0  0  0
    3.4200    1.6090    9.3236 H   0  0  0  0  0  0  0  0  0  0  0  0
    5.1186   -0.2341    9.5062 H   0  0  0  0  0  0  0  0  0  0  0  0
    7.3335    0.0923    8.6138 H   0  0  0  0  0  0  0  0  0  0  0  0
    8.0120    2.3512    7.8687 H   0  0  0  0  0  0  0  0  0  0  0  0
    6.2441    3.8224    7.1728 H   0  0  0  0  0  0  0  0  0  0  0  0
   -6.0958   -3.5334    5.6715 H   0  0  0  0  0  0  0  0  0  0  0  0
   -6.6555   -5.5894    2.0677 H   0  0  0  0  0  0  0  0  0  0  0  0
   -8.5520   -3.9280    2.1015 H   0  0  0  0  0  0  0  0  0  0  0  0
   -3.2373   -4.7647    3.5517 H   0  0  0  0  0  0  0  0  0  0  0  0
   -3.7837   -6.2854    2.8193 H   0  0  0  0  0  0  0  0  0  0  0  0
   -4.4552   -7.9234    5.0996 H   0  0  0  0  0  0  0  0  0  0  0  0
   -3.1675   -9.1174    6.8756 H   0  0  0  0  0  0  0  0  0  0  0  0
   -1.2642   -7.8943    7.8869 H   0  0  0  0  0  0  0  0  0  0  0  0
    0.0822   -6.5419    6.3500 H   0  0  0  0  0  0  0  0  0  0  0  0
   -1.0224   -5.6711    4.2582 H   0  0  0  0  0  0  0  0  0  0  0  0
   -6.3576    1.7588   -6.2278 H   0  0  0  0  0  0  0  0  0  0  0  0
  1  2  2  0
  2  3  1  0
  3  4  2  0
  4  5  1  0
  5  6  2  0
  4  7  1  0
  7  8  1  0
  8  9  1  0
  9 10  2  0
 10 11  1  0
 11 12  2  0
 12 13  1  0
 13 14  2  0
 14 15  1  0
 15 16  1  0
 16 17  1  0
 17 18  1  0
 18 19  2  0
 19 20  1  0
 20 21  2  0
 21 22  1  0
 22 23  2  0
 22 24  1  0
 24 25  1  0
 25 26  1  0
 26 27  1  0
 27 28  1  0
 28 29  2  0
 29 30  1  0
 30 31  1  0
 31 32  1  0
 32 33  1  0
 33 34  2  0
 34 35  1  0
 35 36  2  0
 36 37  1  0
 37 38  2  0
 37 39  1  0
 39 40  1  0
 40 41  1  0
 41 42  1  0
 42 43  2  0
 43 44  1  0
 44 45  1  0
 45 46  1  0
 46 47  1  0
 47 48  1  0
 48 49  2  0
 49 50  1  0
 50 51  2  0
 51 52  1  0
 52 53  2  0
 52 54  1  0
 54 55  1  0
 55 56  1  0
 56 57  1  0
 57 58  2  0
 58 59  1  0
 59 60  1  0
 60 61  1  0
 61 62  1  0
 58 63  1  0
 63 64  2  0
 64 65  1  0
 65 66  2  0
 66 67  1  0
 67 68  2  0
 66 69  1  0
 69 70  1  0
 70 71  1  0
 71 72  2  0
 72 73  1  0
 73 74  2  0
 74 75  1  0
 75 76  2  0
 50 77  1  0
 77 78  1  0
 78 79  1  0
 79 80  1  0
 80 81  2  0
 81 82  1  0
 82 83  1  0
 83 84  1  0
 84 85  1  0
 85 86  1  0
 86 87  1  0
 87 88  2  0
 88 89  1  0
 89 90  2  0
 90 91  1  0
 90 92  1  0
 92 93  1  0
 93 94  1  0
 94 95  1  0
 95 96  1  0
 96 97  2  0
 97 98  1  0
 98 99  1  0
 99100  1  0
 98101  1  0
101102  2  0
102103  1  0
103104  2  0
104105  1  0
105106  2  0
103107  1  0
107108  1  0
108109  1  0
109110  2  0
110111  1  0
111112  2  0
112113  1  0
113114  2  0
 88115  1  0
115116  1  0
116117  1  0
117118  1  0
 81119  1  0
119120  2  0
120121  1  0
121122  2  0
122123  1  0
123124  2  0
122125  1  0
125126  1  0
126127  1  0
127128  2  0
128129  1  0
129130  2  0
130131  1  0
131132  2  0
 43133  1  0
133134  2  0
134135  1  0
135136  2  0
136137  1  0
137138  2  0
136139  1  0
139140  1  0
140141  1  0
141142  2  0
142143  1  0
143144  2  0
144145  1  0
145146  2  0
 30147  1  0
147148  2  0
148149  1  0
149150  2  0
150151  1  0
151152  2  0
149153  1  0
153154  1  0
154155  1  0
155156  2  0
156157  1  0
157158  2  0
158159  1  0
159160  2  0
 15161  1  0
161162  2  0
  6  1  1  0
162  9  1  0
161 12  1  0
118 13  1  0
124119  1  0
132127  1  0
138133  1  0
146141  1  0
152147  1  0
160155  1  0
 23 18  1  0
152 28  1  0
 62 20  1  0
 68 63  1  0
 76 71  1  0
124 79  1  0
 38 33  1  0
138 41  1  0
100 35  1  0
106101  1  0
114109  1  0
 53 48  1  0
 68 56  1  0
 91 86  2  0
106 96  1  0
  1163  1  0
  2164  1  0
  3165  1  0
  5166  1  0
  6167  1  0
  7168  1  0
  7169  1  0
 10170  1  0
 11171  1  0
 14172  1  0
 16173  1  0
 17174  1  0
 17175  1  0
 19176  1  0
 21177  1  0
 23178  1  0
 24179  1  0
 24180  1  0
 25181  1  0
 26182  1  0
 26183  1  0
 27184  1  0
 27185  1  0
 29186  1  0
 31187  1  0
 32188  1  0
 32189  1  0
 34190  1  0
 36191  1  0
 38192  1  0
 39193  1  0
 39194  1  0
 40195  1  0
 42196  1  0
 44197  1  0
 44198  1  0
 45199  1  0
 45200  1  0
 46201  1  0
 47202  1  0
 47203  1  0
 49204  1  0
 51205  1  0
 53206  1  0
 54207  1  0
 54208  1  0
 55209  1  0
 57210  1  0
 59211  1  0
 59212  1  0
 60213  1  0
 60214  1  0
 61215  1  0
 62216  1  0
 62217  1  0
 64218  1  0
 65219  1  0
 67220  1  0
 70221  1  0
 70222  1  0
 72223  1  0
 73224  1  0
 74225  1  0
 75226  1  0
 76227  1  0
 77228  1  0
 77229  1  0
 78230  1  0
 80231  1  0
 82232  1  0
 82233  1  0
 83234  1  0
 83235  1  0
 84236  1  0
 85237  1  0
 85238  1  0
 87239  1  0
 89240  1  0
 91241  1  0
 92242  1  0
 92243  1  0
 93244  1  0
 94245  1  0
 94246  1  0
 95247  1  0
 95248  1  0
 97249  1  0
 99250  1  0
100251  1  0
100252  1  0
102253  1  0
104254  1  0
105255  1  0
108256  1  0
108257  1  0
110258  1  0
111259  1  0
112260  1  0
113261  1  0
114262  1  0
115263  1  0
115264  1  0
116265  1  0
117266  1  0
117267  1  0
118268  1  0
118269  1  0
120270  1  0
121271  1  0
123272  1  0
126273  1  0
126274  1  0
128275  1  0
129276  1  0
130277  1  0
131278  1  0
132279  1  0
134280  1  0
135281  1  0
137282  1  0
140283  1  0
140284  1  0
142285  1  0
143286  1  0
144287  1  0
145288  1  0
146289  1  0
148290  1  0
150291  1  0
151292  1  0
154293  1  0
154294  1  0
156295  1  0
157296  1  0
158297  1  0
159298  1  0
160299  1  0
162300  1  0
M  END
