
     RDKit          3D

210222  0  0  0  0  0  0  0  0999 V2000
   -6.3066    2.0953   -3.4806 O   0  0  0  0  0  0  0  0  0  0  0  0
   -5.6940    1.9388   -2.8692 C   0  0  0  0  0  0  0  0  0  0  0  0
   -5.7415    3.3355   -2.3807 C   0  0  0  0  0  0  0  0  0  0  0  0
   -5.9609    3.4615   -0.9960 N   0  0  0  0  0  0  0  0  0  0  0  0
   -7.0803    4.2023   -0.5613 C   0  0  0  0  0  0  0  0  0  0  0  0
   -8.2793    3.5119    0.0110 C   0  0  0  0  0  0  0  0  0  0  0  0
   -8.9448    3.7159    1.2554 C   0  0  0  0  0  0  0  0  0  0  0  0
   -8.5011    2.9211    2.3499 C   0  0  0  0  0  0  0  0  0  0  0  0
   -8.9454    1.6659    1.8391 C   0  0  0  0  0  0  0  0  0  0  0  0
   -8.2657    1.1795    0.6851 C   0  0  0  0  0  0  0  0  0  0  0  0
   -8.7274    2.1801   -0.2209 C   0  0  0  0  0  0  0  0  0  0  0  0
   -7.0662    0.2896    0.5964 C   0  0  0  0  0  0  0  0  0  0  0  0
   -7.4087   -1.0804    0.2086 N   0  0  0  0  0  0  0  0  0  0  0  0
   -6.9472   -2.0538    1.1598 C   0  0  0  0  0  0  0  0  0  0  0  0
   -5.4562   -2.1209    1.0093 C   0  0  0  0  0  0  0  0  0  0  0  0
   -5.4483   -2.9924    0.1679 O   0  0  0  0  0  0  0  0  0  0  0  0
   -3.9936   -1.9420    1.1123 C   0  0  0  0  0  0  0  0  0  0  0  0
   -3.5055   -1.9352    2.5665 C   0  0  0  0  0  0  0  0  0  0  0  0
   -3.1737   -0.8049    3.3808 C   0  0  0  0  0  0  0  0  0  0  0  0
   -1.8070   -0.6082    3.6233 C   0  0  0  0  0  0  0  0  0  0  0  0
   -0.9328   -1.6241    3.1337 C   0  0  0  0  0  0  0  0  0  0  0  0
   -1.5188   -2.8569    3.5523 C   0  0  0  0  0  0  0  0  0  0  0  0
   -2.8886   -3.0005    3.2971 C   0  0  0  0  0  0  0  0  0  0  0  0
    0.0080   -1.4533    2.0472 O   0  0  0  0  0  0  0  0  0  0  0  0
    0.9727   -1.1984    1.0730 N   0  0  0  0  0  0  0  0  0  0  0  0
    2.3001   -1.6191    1.5244 C   0  0  0  0  0  0  0  0  0  0  0  0
    2.6740   -3.0068    1.1537 C   0  0  0  0  0  0  0  0  0  0  0  0
    3.3817   -3.4310   -0.0125 C   0  0  0  0  0  0  0  0  0  0  0  0
    3.8110   -4.8057   -0.0333 C   0  0  0  0  0  0  0  0  0  0  0  0
    4.7479   -4.6129    1.0460 C   0  0  0  0  0  0  0  0  0  0  0  0
    4.1608   -4.3832    2.3261 C   0  0  0  0  0  0  0  0  0  0  0  0
    2.7756   -4.1553    2.0188 C   0  0  0  0  0  0  0  0  0  0  0  0
    4.8639   -3.9508    3.5747 C   0  0  0  0  0  0  0  0  0  0  0  0
    5.2143   -2.5580    3.7098 N   0  0  0  0  0  0  0  0  0  0  0  0
    4.4037   -1.8851    4.6289 O   0  0  0  0  0  0  0  0  0  0  0  0
    3.4586   -1.2932    5.5548 C   0  0  0  0  0  0  0  0  0  0  0  0
    3.3350   -1.5720    6.9495 C   0  0  0  0  0  0  0  0  0  0  0  0
    3.7164   -0.5321    7.8040 C   0  0  0  0  0  0  0  0  0  0  0  0
    4.2228    0.6549    7.1862 C   0  0  0  0  0  0  0  0  0  0  0  0
    3.1627    0.9758    6.2823 C   0  0  0  0  0  0  0  0  0  0  0  0
    2.8192   -0.0313    5.3695 C   0  0  0  0  0  0  0  0  0  0  0  0
    5.6623    1.1763    7.2016 C   0  0  0  0  0  0  0  0  0  0  0  0
    6.1929    1.5441    5.8485 C   0  0  0  0  0  0  0  0  0  0  0  0
    5.2468    2.3262    5.7279 O   0  0  0  0  0  0  0  0  0  0  0  0
    6.6213    1.9105    4.4566 C   0  0  0  0  0  0  0  0  0  0  0  0
    6.5943    3.3283    4.3533 N   0  0  0  0  0  0  0  0  0  0  0  0
    5.5816    3.8489    3.4354 C   0  0  0  0  0  0  0  0  0  0  0  0
    5.2506    2.9103    2.3324 C   0  0  0  0  0  0  0  0  0  0  0  0
    4.0653    2.1349    2.1425 C   0  0  0  0  0  0  0  0  0  0  0  0
    3.0429    2.6895    1.3213 C   0  0  0  0  0  0  0  0  0  0  0  0
    3.7897    2.6735    0.1064 C   0  0  0  0  0  0  0  0  0  0  0  0
    4.8731    3.5961    0.0337 C   0  0  0  0  0  0  0  0  0  0  0  0
    5.7026    2.9230    0.9792 C   0  0  0  0  0  0  0  0  0  0  0  0
    4.9291    5.0093   -0.4312 C   0  0  0  0  0  0  0  0  0  0  0  0
    5.6054    5.2270   -1.6777 N   0  0  0  0  0  0  0  0  0  0  0  0
    5.9536    4.0323   -2.3078 O   0  0  0  0  0  0  0  0  0  0  0  0
    6.4007    2.8553   -3.0178 C   0  0  0  0  0  0  0  0  0  0  0  0
    6.4664    2.7214   -4.4391 C   0  0  0  0  0  0  0  0  0  0  0  0
    5.5777    1.8058   -5.0177 C   0  0  0  0  0  0  0  0  0  0  0  0
    4.6349    1.2083   -4.1214 C   0  0  0  0  0  0  0  0  0  0  0  0
    5.4991    0.6371   -3.1344 C   0  0  0  0  0  0  0  0  0  0  0  0
    6.4098    1.5134   -2.5309 C   0  0  0  0  0  0  0  0  0  0  0  0
    3.1297    1.4783   -4.0145 C   0  0  0  0  0  0  0  0  0  0  0  0
    2.3261    0.4162   -4.6728 C   0  0  0  0  0  0  0  0  0  0  0  0
    2.5032    0.8734   -5.7935 O   0  0  0  0  0  0  0  0  0  0  0  0
    1.8600   -0.9007   -5.2163 C   0  0  0  0  0  0  0  0  0  0  0  0
    2.4322   -2.0171   -4.5104 N   0  0  0  0  0  0  0  0  0  0  0  0
    1.6873   -3.2291   -4.7347 C   0  0  0  0  0  0  0  0  0  0  0  0
    0.2704   -3.1904   -4.1696 C   0  0  0  0  0  0  0  0  0  0  0  0
   -0.2891   -3.7916   -2.9864 C   0  0  0  0  0  0  0  0  0  0  0  0
   -0.8451   -5.0979   -3.1476 C   0  0  0  0  0  0  0  0  0  0  0  0
   -0.7698   -5.2992   -4.5692 C   0  0  0  0  0  0  0  0  0  0  0  0
   -1.6288   -4.3238   -5.1863 C   0  0  0  0  0  0  0  0  0  0  0  0
   -1.0100   -3.0898   -4.8236 C   0  0  0  0  0  0  0  0  0  0  0  0
   -3.0269   -4.5065   -5.6695 C   0  0  0  0  0  0  0  0  0  0  0  0
   -4.1278   -3.9556   -4.8998 N   0  0  0  0  0  0  0  0  0  0  0  0
   -4.6594   -2.8632   -5.5901 O   0  0  0  0  0  0  0  0  0  0  0  0
   -5.2680   -1.7344   -6.2626 C   0  0  0  0  0  0  0  0  0  0  0  0
   -6.6420   -1.3586   -6.1639 C   0  0  0  0  0  0  0  0  0  0  0  0
   -6.8980   -0.1514   -5.4992 C   0  0  0  0  0  0  0  0  0  0  0  0
   -5.7611    0.4898   -4.9079 C   0  0  0  0  0  0  0  0  0  0  0  0
   -4.8940    0.6203   -6.0388 C   0  0  0  0  0  0  0  0  0  0  0  0
   -4.6022   -0.5608   -6.7333 C   0  0  0  0  0  0  0  0  0  0  0  0
   -5.3912    0.6044   -3.4237 C   0  0  0  0  0  0  0  0  0  0  0  0
   -1.6363   -5.8813   -2.1594 C   0  0  0  0  0  0  0  0  0  0  0  0
   -0.8279   -6.8050   -1.3605 N   0  0  0  0  0  0  0  0  0  0  0  0
   -1.1740   -8.1741   -1.4861 C   0  0  0  0  0  0  0  0  0  0  0  0
   -0.5141   -8.7274   -2.7157 C   0  0  0  0  0  0  0  0  0  0  0  0
   -1.6107   -8.8027   -3.2705 O   0  0  0  0  0  0  0  0  0  0  0  0
    0.0537   -9.6878   -3.6853 C   0  0  0  0  0  0  0  0  0  0  0  0
    1.2567  -10.4978   -3.1934 C   0  0  0  0  0  0  0  0  0  0  0  0
    1.5621  -10.8939   -1.8544 C   0  0  0  0  0  0  0  0  0  0  0  0
    2.6331  -10.2208   -1.2516 C   0  0  0  0  0  0  0  0  0  0  0  0
    3.3528   -9.3055   -2.0806 C   0  0  0  0  0  0  0  0  0  0  0  0
    3.6262  -10.0513   -3.2684 C   0  0  0  0  0  0  0  0  0  0  0  0
    2.5184  -10.6887   -3.8410 C   0  0  0  0  0  0  0  0  0  0  0  0
    3.3903   -7.8635   -1.9525 O   0  0  0  0  0  0  0  0  0  0  0  0
    3.5513   -6.4817   -1.8402 N   0  0  0  0  0  0  0  0  0  0  0  0
    3.0950   -6.0502   -0.5470 C   0  0  0  0  0  0  0  0  0  0  0  0
    1.8714    3.5184    1.7516 C   0  0  0  0  0  0  0  0  0  0  0  0
    2.1476    4.6697    2.5633 N   0  0  0  0  0  0  0  0  0  0  0  0
    1.1140    5.5990    2.4801 O   0  0  0  0  0  0  0  0  0  0  0  0
    0.0601    6.5918    2.4512 C   0  0  0  0  0  0  0  0  0  0  0  0
   -0.4537    7.2694    3.5979 C   0  0  0  0  0  0  0  0  0  0  0  0
   -1.7795    6.9731    3.9418 C   0  0  0  0  0  0  0  0  0  0  0  0
   -2.4077    5.9404    3.1743 C   0  0  0  0  0  0  0  0  0  0  0  0
   -2.2505    6.4412    1.8428 C   0  0  0  0  0  0  0  0  0  0  0  0
   -0.9430    6.7516    1.4483 C   0  0  0  0  0  0  0  0  0  0  0  0
   -2.7511    4.5116    3.6125 C   0  0  0  0  0  0  0  0  0  0  0  0
   -4.1742    4.3611    3.9800 C   0  0  0  0  0  0  0  0  0  0  0  0
   -3.9680    4.8199    5.1022 O   0  0  0  0  0  0  0  0  0  0  0  0
   -5.6507    4.3536    4.2403 C   0  0  0  0  0  0  0  0  0  0  0  0
   -6.3839    4.1164    3.0288 N   0  0  0  0  0  0  0  0  0  0  0  0
   -7.4591    3.2199    3.3758 C   0  0  0  0  0  0  0  0  0  0  0  0
   -6.5615    3.8521   -2.9269 H   0  0  0  0  0  0  0  0  0  0  0  0
   -4.8132    3.9011   -2.6486 H   0  0  0  0  0  0  0  0  0  0  0  0
   -5.5017    2.8255   -0.3541 H   0  0  0  0  0  0  0  0  0  0  0  0
   -6.5293    4.9080    0.1016 H   0  0  0  0  0  0  0  0  0  0  0  0
   -7.3433    4.8857   -1.4141 H   0  0  0  0  0  0  0  0  0  0  0  0
   -9.6968    4.5232    1.3856 H   0  0  0  0  0  0  0  0  0  0  0  0
   -9.6927    1.0481    2.3808 H   0  0  0  0  0  0  0  0  0  0  0  0
   -9.3223    1.9150   -1.1207 H   0  0  0  0  0  0  0  0  0  0  0  0
   -6.2621    0.5620   -0.1130 H   0  0  0  0  0  0  0  0  0  0  0  0
   -6.4274    0.1714    1.4836 H   0  0  0  0  0  0  0  0  0  0  0  0
   -7.1669   -1.2903   -0.7740 H   0  0  0  0  0  0  0  0  0  0  0  0
   -7.2529   -1.7198    2.1655 H   0  0  0  0  0  0  0  0  0  0  0  0
   -7.3774   -3.0249    0.8788 H   0  0  0  0  0  0  0  0  0  0  0  0
   -3.7304   -1.0564    0.5193 H   0  0  0  0  0  0  0  0  0  0  0  0
   -3.5358   -2.6979    0.4614 H   0  0  0  0  0  0  0  0  0  0  0  0
   -3.8596   -0.1151    3.8807 H   0  0  0  0  0  0  0  0  0  0  0  0
   -1.5341    0.2088    4.2976 H   0  0  0  0  0  0  0  0  0  0  0  0
   -1.0168   -3.6453    4.1191 H   0  0  0  0  0  0  0  0  0  0  0  0
   -3.3664   -3.8784    3.7391 H   0  0  0  0  0  0  0  0  0  0  0  0
    0.6789   -1.6477    0.1970 H   0  0  0  0  0  0  0  0  0  0  0  0
    3.0513   -0.7928    1.4168 H   0  0  0  0  0  0  0  0  0  0  0  0
    2.1867   -1.4003    2.6220 H   0  0  0  0  0  0  0  0  0  0  0  0
    3.4131   -2.8763   -0.9745 H   0  0  0  0  0  0  0  0  0  0  0  0
    5.8036   -4.8919    0.8497 H   0  0  0  0  0  0  0  0  0  0  0  0
    1.9246   -4.7696    2.3475 H   0  0  0  0  0  0  0  0  0  0  0  0
    5.6621   -4.6354    3.9689 H   0  0  0  0  0  0  0  0  0  0  0  0
    4.2749   -4.1118    4.5221 H   0  0  0  0  0  0  0  0  0  0  0  0
    6.1957   -2.3855    3.9738 H   0  0  0  0  0  0  0  0  0  0  0  0
    2.9027   -2.4748    7.3888 H   0  0  0  0  0  0  0  0  0  0  0  0
    3.4987   -0.6966    8.8628 H   0  0  0  0  0  0  0  0  0  0  0  0
    2.5570    1.8865    6.2523 H   0  0  0  0  0  0  0  0  0  0  0  0
    1.9826    0.1769    4.6964 H   0  0  0  0  0  0  0  0  0  0  0  0
    6.4338    0.4564    7.4719 H   0  0  0  0  0  0  0  0  0  0  0  0
    5.8018    2.0318    7.8768 H   0  0  0  0  0  0  0  0  0  0  0  0
    7.6922    1.5890    4.3927 H   0  0  0  0  0  0  0  0  0  0  0  0
    6.0888    1.3535    3.6840 H   0  0  0  0  0  0  0  0  0  0  0  0
    6.4709    3.8533    5.2193 H   0  0  0  0  0  0  0  0  0  0  0  0
    4.7435    4.2536    4.0582 H   0  0  0  0  0  0  0  0  0  0  0  0
    5.9997    4.8545    3.1741 H   0  0  0  0  0  0  0  0  0  0  0  0
    3.9229    1.1756    2.6839 H   0  0  0  0  0  0  0  0  0  0  0  0
    3.4516    2.1005   -0.7805 H   0  0  0  0  0  0  0  0  0  0  0  0
    6.6956    2.5145    0.6943 H   0  0  0  0  0  0  0  0  0  0  0  0
    3.9558    5.5413   -0.5876 H   0  0  0  0  0  0  0  0  0  0  0  0
    5.3513    5.7747    0.2708 H   0  0  0  0  0  0  0  0  0  0  0  0
    6.4511    5.8494   -1.5756 H   0  0  0  0  0  0  0  0  0  0  0  0
    7.2336    3.1475   -5.0923 H   0  0  0  0  0  0  0  0  0  0  0  0
    5.7251    1.5881   -6.0793 H   0  0  0  0  0  0  0  0  0  0  0  0
    5.5995   -0.4141   -2.8521 H   0  0  0  0  0  0  0  0  0  0  0  0
    7.0934    1.1077   -1.7802 H   0  0  0  0  0  0  0  0  0  0  0  0
    2.7837    2.4339   -4.4197 H   0  0  0  0  0  0  0  0  0  0  0  0
    2.7333    1.5844   -2.9989 H   0  0  0  0  0  0  0  0  0  0  0  0
    2.0340   -0.9644   -6.3000 H   0  0  0  0  0  0  0  0  0  0  0  0
    0.7749   -0.9227   -5.0460 H   0  0  0  0  0  0  0  0  0  0  0  0
    2.4700   -1.8103   -3.4850 H   0  0  0  0  0  0  0  0  0  0  0  0
    2.3334   -4.0440   -4.3800 H   0  0  0  0  0  0  0  0  0  0  0  0
    1.7802   -3.4352   -5.8078 H   0  0  0  0  0  0  0  0  0  0  0  0
   -0.0392   -3.3189   -2.0129 H   0  0  0  0  0  0  0  0  0  0  0  0
   -0.1799   -6.0621   -5.0933 H   0  0  0  0  0  0  0  0  0  0  0  0
   -1.2951   -2.0910   -5.2175 H   0  0  0  0  0  0  0  0  0  0  0  0
   -3.4425   -5.5488   -5.6105 H   0  0  0  0  0  0  0  0  0  0  0  0
   -3.1683   -4.4027   -6.7786 H   0  0  0  0  0  0  0  0  0  0  0  0
   -3.7868   -3.6700   -3.9682 H   0  0  0  0  0  0  0  0  0  0  0  0
   -7.4822   -1.8408   -6.6713 H   0  0  0  0  0  0  0  0  0  0  0  0
   -7.9265    0.2178   -5.5405 H   0  0  0  0  0  0  0  0  0  0  0  0
   -4.4866    1.5345   -6.4773 H   0  0  0  0  0  0  0  0  0  0  0  0
   -3.9469   -0.5035   -7.6064 H   0  0  0  0  0  0  0  0  0  0  0  0
   -4.3389    0.3266   -3.1835 H   0  0  0  0  0  0  0  0  0  0  0  0
   -5.8738   -0.1203   -2.7570 H   0  0  0  0  0  0  0  0  0  0  0  0
   -2.4058   -6.5886   -2.5724 H   0  0  0  0  0  0  0  0  0  0  0  0
   -2.4110   -5.3692   -1.5320 H   0  0  0  0  0  0  0  0  0  0  0  0
   -0.7147   -6.4672   -0.3767 H   0  0  0  0  0  0  0  0  0  0  0  0
   -0.8126   -8.6861   -0.5593 H   0  0  0  0  0  0  0  0  0  0  0  0
   -2.2750   -8.3492   -1.4978 H   0  0  0  0  0  0  0  0  0  0  0  0
   -0.7530  -10.3492   -4.0918 H   0  0  0  0  0  0  0  0  0  0  0  0
    0.2505   -8.9742   -4.4877 H   0  0  0  0  0  0  0  0  0  0  0  0
    1.1119  -11.6995   -1.2684 H   0  0  0  0  0  0  0  0  0  0  0  0
    2.8860  -10.4886   -0.2221 H   0  0  0  0  0  0  0  0  0  0  0  0
    4.6116  -10.2356   -3.7042 H   0  0  0  0  0  0  0  0  0  0  0  0
    2.7454  -11.3556   -4.6779 H   0  0  0  0  0  0  0  0  0  0  0  0
    2.9614   -6.0145   -2.5480 H   0  0  0  0  0  0  0  0  0  0  0  0
    3.1529   -6.9399    0.1000 H   0  0  0  0  0  0  0  0  0  0  0  0
    1.9994   -6.0008   -0.6098 H   0  0  0  0  0  0  0  0  0  0  0  0
    1.0147    2.9225    2.1652 H   0  0  0  0  0  0  0  0  0  0  0  0
    1.2978    4.0059    0.9225 H   0  0  0  0  0  0  0  0  0  0  0  0
    3.0143    5.1149    2.1588 H   0  0  0  0  0  0  0  0  0  0  0  0
    0.0228    8.1022    4.1234 H   0  0  0  0  0  0  0  0  0  0  0  0
   -2.2282    7.5976    4.7194 H   0  0  0  0  0  0  0  0  0  0  0  0
   -3.0315    6.6886    1.1196 H   0  0  0  0  0  0  0  0  0  0  0  0
   -0.7860    7.1431    0.4401 H   0  0  0  0  0  0  0  0  0  0  0  0
   -2.5221    3.7229    2.8857 H   0  0  0  0  0  0  0  0  0  0  0  0
   -2.1640    4.1183    4.4530 H   0  0  0  0  0  0  0  0  0  0  0  0
   -5.9883    5.3083    4.7110 H   0  0  0  0  0  0  0  0  0  0  0  0
   -5.8280    3.5717    5.0209 H   0  0  0  0  0  0  0  0  0  0  0  0
   -6.8326    5.0199    2.7267 H   0  0  0  0  0  0  0  0  0  0  0  0
   -6.8260    2.3987    3.7393 H   0  0  0  0  0  0  0  0  0  0  0  0
   -7.8851    3.6210    4.3331 H   0  0  0  0  0  0  0  0  0  0  0  0
  1  2  2  0
  2  3  1  0
  3  4  1  0
  4  5  1  0
  5  6  1  0
  6  7  1  0
  7  8  2  0
  8  9  1  0
  9 10  2  0
 10 11  1  0
 10 12  1  0
 12 13  1  0
 13 14  1  0
 14 15  1  0
 15 16  2  0
 15 17  1  0
 17 18  1  0
 18 19  2  0
 19 20  1  0
 20 21  2  0
 21 22  1  0
 22 23  2  0
 21 24  1  0
 24 25  1  0
 25 26  1  0
 26 27  1  0
 27 28  2  0
 28 29  1  0
 29 30  2  0
 30 31  1  0
 31 32  2  0
 31 33  1  0
 33 34  1  0
 34 35  1  0
 35 36  1  0
 36 37  2  0
 37 38  1  0
 38 39  2  0
 39 40  1  0
 40 41  2  0
 39 42  1  0
 42 43  1  0
 43 44  2  0
 43 45  1  0
 45 46  1  0
 46 47  1  0
 47 48  1  0
 48 49  2  0
 49 50  1  0
 50 51  2  0
 51 52  1  0
 52 53  2  0
 52 54  1  0
 54 55  1  0
 55 56  1  0
 56 57  1  0
 57 58  2  0
 58 59  1  0
 59 60  2  0
 60 61  1  0
 61 62  2  0
 60 63  1  0
 63 64  1  0
 64 65  2  0
 64 66  1  0
 66 67  1  0
 67 68  1  0
 68 69  1  0
 69 70  1  0
 70 71  2  0
 71 72  1  0
 72 73  2  0
 73 74  1  0
 73 75  1  0
 75 76  1  0
 76 77  1  0
 77 78  1  0
 78 79  2  0
 79 80  1  0
 80 81  2  0
 81 82  1  0
 82 83  2  0
 81 84  1  0
 71 85  1  0
 85 86  1  0
 86 87  1  0
 87 88  1  0
 88 89  2  0
 88 90  1  0
 90 91  1  0
 91 92  2  0
 92 93  1  0
 93 94  2  0
 94 95  1  0
 95 96  2  0
 94 97  1  0
 97 98  1  0
 98 99  1  0
 50100  1  0
100101  1  0
101102  1  0
102103  1  0
103104  2  0
104105  1  0
105106  2  0
106107  1  0
107108  2  0
106109  1  0
109110  1  0
110111  2  0
110112  1  0
112113  1  0
113114  1  0
 84  2  1  0
 96 91  1  0
108103  1  0
 11  6  2  0
 23 18  1  0
 32 27  1  0
 41 36  1  0
 53 48  1  0
 62 57  1  0
 74 69  2  0
 83 78  1  0
114  8  1  0
 99 29  1  0
  3115  1  0
  3116  1  0
  4117  1  0
  5118  1  0
  5119  1  0
  7120  1  0
  9121  1  0
 11122  1  0
 12123  1  0
 12124  1  0
 13125  1  0
 14126  1  0
 14127  1  0
 17128  1  0
 17129  1  0
 19130  1  0
 20131  1  0
 22132  1  0
 23133  1  0
 25134  1  0
 26135  1  0
 26136  1  0
 28137  1  0
 30138  1  0
 32139  1  0
 33140  1  0
 33141  1  0
 34142  1  0
 37143  1  0
 38144  1  0
 40145  1  0
 41146  1  0
 42147  1  0
 42148  1  0
 45149  1  0
 45150  1  0
 46151  1  0
 47152  1  0
 47153  1  0
 49154  1  0
 51155  1  0
 53156  1  0
 54157  1  0
 54158  1  0
 55159  1  0
 58160  1  0
 59161  1  0
 61162  1  0
 62163  1  0
 63164  1  0
 63165  1  0
 66166  1  0
 66167  1  0
 67168  1  0
 68169  1  0
 68170  1  0
 70171  1  0
 72172  1  0
 74173  1  0
 75174  1  0
 75175  1  0
 76176  1  0
 79177  1  0
 80178  1  0
 82179  1  0
 83180  1  0
 84181  1  0
 84182  1  0
 85183  1  0
 85184  1  0
 86185  1  0
 87186  1  0
 87187  1  0
 90188  1  0
 90189  1  0
 92190  1  0
 93191  1  0
 95192  1  0
 96193  1  0
 98194  1  0
 99195  1  0
 99196  1  0
100197  1  0
100198  1  0
101199  1  0
104200  1  0
105201  1  0
107202  1  0
108203  1  0
109204  1  0
109205  1  0
112206  1  0
112207  1  0
113208  1  0
114209  1  0
114210  1  0
M  END
