
     RDKit          3D

210228  0  0  0  0  0  0  0  0999 V2000
    8.2386   -6.2037   -1.4078 O   0  0  0  0  0  0  0  0  0  0  0  0
    7.2837   -6.5133   -0.6401 C   0  0  0  0  0  0  0  0  0  0  0  0
    6.4293   -7.0288   -1.6679 N   0  0  0  0  0  0  0  0  0  0  0  0
    5.4272   -7.2142   -2.7181 C   0  0  0  0  0  0  0  0  0  0  0  0
    4.0120   -7.0235   -2.1824 C   0  0  0  0  0  0  0  0  0  0  0  0
    3.4349   -5.8727   -1.5737 C   0  0  0  0  0  0  0  0  0  0  0  0
    2.1587   -6.1221   -0.9800 C   0  0  0  0  0  0  0  0  0  0  0  0
    1.3558   -6.2626   -2.1497 C   0  0  0  0  0  0  0  0  0  0  0  0
    1.7840   -7.2844   -3.0495 C   0  0  0  0  0  0  0  0  0  0  0  0
    2.8746   -7.8793   -2.3439 C   0  0  0  0  0  0  0  0  0  0  0  0
    1.4406   -7.5282   -4.5138 C   0  0  0  0  0  0  0  0  0  0  0  0
    2.3372   -6.8748   -5.4257 N   0  0  0  0  0  0  0  0  0  0  0  0
    2.1625   -5.5255   -5.3527 O   0  0  0  0  0  0  0  0  0  0  0  0
    2.1887   -4.2054   -4.9647 C   0  0  0  0  0  0  0  0  0  0  0  0
    1.5733   -4.3501   -6.2035 C   0  0  0  0  0  0  0  0  0  0  0  0
    0.5906   -3.4045   -6.4780 C   0  0  0  0  0  0  0  0  0  0  0  0
    0.0968   -2.6075   -5.4488 C   0  0  0  0  0  0  0  0  0  0  0  0
   -1.2225   -2.4808   -5.1539 N   0  0  0  0  0  0  0  0  0  0  0  0
   -1.3636   -2.0275   -3.8822 C   0  0  0  0  0  0  0  0  0  0  0  0
   -0.0713   -1.8043   -3.4200 C   0  0  0  0  0  0  0  0  0  0  0  0
   -0.9674   -1.0610   -2.5100 C   0  0  0  0  0  0  0  0  0  0  0  0
   -1.6204   -0.6863   -3.5360 O   0  0  0  0  0  0  0  0  0  0  0  0
   -1.5042    0.0035   -1.6490 C   0  0  0  0  0  0  0  0  0  0  0  0
   -1.9601    0.7029   -2.6045 O   0  0  0  0  0  0  0  0  0  0  0  0
   -2.3795    0.6280   -0.7004 N   0  0  0  0  0  0  0  0  0  0  0  0
   -3.2225    1.2912    0.2935 C   0  0  0  0  0  0  0  0  0  0  0  0
   -3.4270    0.3838    1.5150 C   0  0  0  0  0  0  0  0  0  0  0  0
   -4.6247    0.0209    2.2106 C   0  0  0  0  0  0  0  0  0  0  0  0
   -4.8561    0.7305    3.4268 C   0  0  0  0  0  0  0  0  0  0  0  0
   -3.7434    0.2645    4.1977 C   0  0  0  0  0  0  0  0  0  0  0  0
   -2.4545    0.6374    3.7027 C   0  0  0  0  0  0  0  0  0  0  0  0
   -2.4440   -0.0563    2.4533 C   0  0  0  0  0  0  0  0  0  0  0  0
   -1.4929    1.7345    4.1866 C   0  0  0  0  0  0  0  0  0  0  0  0
   -1.7295    3.0041    3.5790 N   0  0  0  0  0  0  0  0  0  0  0  0
   -2.2680    4.1864    2.9738 C   0  0  0  0  0  0  0  0  0  0  0  0
   -1.1907    4.5738    2.4587 O   0  0  0  0  0  0  0  0  0  0  0  0
   -3.1137    5.0198    2.1060 C   0  0  0  0  0  0  0  0  0  0  0  0
   -2.1790    5.3560    1.3095 O   0  0  0  0  0  0  0  0  0  0  0  0
   -4.0651    5.3874    1.0385 C   0  0  0  0  0  0  0  0  0  0  0  0
   -3.0996    6.3926    1.0658 C   0  0  0  0  0  0  0  0  0  0  0  0
   -3.2725    7.0785   -0.0948 N   0  0  0  0  0  0  0  0  0  0  0  0
   -4.2039    6.4417   -0.8482 C   0  0  0  0  0  0  0  0  0  0  0  0
   -4.4761    6.4521   -2.2121 C   0  0  0  0  0  0  0  0  0  0  0  0
   -5.3628    5.4708   -2.6392 C   0  0  0  0  0  0  0  0  0  0  0  0
   -6.3377    5.0043   -1.7648 C   0  0  0  0  0  0  0  0  0  0  0  0
   -6.2663    5.4665   -0.4544 C   0  0  0  0  0  0  0  0  0  0  0  0
   -4.9862    5.6707    0.0202 C   0  0  0  0  0  0  0  0  0  0  0  0
   -6.6147    4.6460   -3.0881 O   0  0  0  0  0  0  0  0  0  0  0  0
   -7.2125    4.6351   -4.3098 N   0  0  0  0  0  0  0  0  0  0  0  0
   -8.1076    3.5496   -4.5434 C   0  0  0  0  0  0  0  0  0  0  0  0
   -7.4522    2.3223   -5.1989 C   0  0  0  0  0  0  0  0  0  0  0  0
   -6.4860    2.2825   -6.2501 C   0  0  0  0  0  0  0  0  0  0  0  0
   -5.1530    1.9966   -5.8139 C   0  0  0  0  0  0  0  0  0  0  0  0
   -5.3239    0.6608   -5.3378 C   0  0  0  0  0  0  0  0  0  0  0  0
   -6.1918    0.5373   -4.2082 C   0  0  0  0  0  0  0  0  0  0  0  0
   -7.4289    0.9499   -4.7959 C   0  0  0  0  0  0  0  0  0  0  0  0
   -5.8203    0.2823   -2.7387 C   0  0  0  0  0  0  0  0  0  0  0  0
   -5.8733   -1.1532   -2.4656 N   0  0  0  0  0  0  0  0  0  0  0  0
   -5.7772   -2.5527   -2.1713 C   0  0  0  0  0  0  0  0  0  0  0  0
   -6.6917   -2.4759   -1.2961 O   0  0  0  0  0  0  0  0  0  0  0  0
   -5.4918   -3.9403   -1.7797 C   0  0  0  0  0  0  0  0  0  0  0  0
   -5.8449   -3.7612   -0.5692 O   0  0  0  0  0  0  0  0  0  0  0  0
   -4.5995   -5.0125   -1.2969 C   0  0  0  0  0  0  0  0  0  0  0  0
   -5.8046   -5.1668   -0.6113 C   0  0  0  0  0  0  0  0  0  0  0  0
   -5.5139   -6.0051    0.4187 N   0  0  0  0  0  0  0  0  0  0  0  0
   -4.1692   -6.1842    0.4733 C   0  0  0  0  0  0  0  0  0  0  0  0
   -3.2842   -6.5106    1.4960 C   0  0  0  0  0  0  0  0  0  0  0  0
   -1.9404   -6.3252    1.1903 C   0  0  0  0  0  0  0  0  0  0  0  0
   -1.5855   -6.6630   -0.1102 C   0  0  0  0  0  0  0  0  0  0  0  0
   -2.5589   -6.7137   -1.1030 C   0  0  0  0  0  0  0  0  0  0  0  0
   -3.7003   -5.9825   -0.8315 C   0  0  0  0  0  0  0  0  0  0  0  0
   -0.5181   -6.1772    0.6535 O   0  0  0  0  0  0  0  0  0  0  0  0
    0.7190   -5.6347    0.9630 N   0  0  0  0  0  0  0  0  0  0  0  0
    1.7850   -6.5016    0.4649 C   0  0  0  0  0  0  0  0  0  0  0  0
   -3.9629    2.9423   -5.5772 C   0  0  0  0  0  0  0  0  0  0  0  0
   -2.7455    2.3793   -6.1054 N   0  0  0  0  0  0  0  0  0  0  0  0
   -1.4244    1.8272   -6.1765 C   0  0  0  0  0  0  0  0  0  0  0  0
   -1.1559    2.3973   -7.2650 O   0  0  0  0  0  0  0  0  0  0  0  0
   -0.0087    1.6673   -5.7957 C   0  0  0  0  0  0  0  0  0  0  0  0
    0.4436    2.4677   -6.6751 O   0  0  0  0  0  0  0  0  0  0  0  0
    1.1732    1.9665   -4.9507 C   0  0  0  0  0  0  0  0  0  0  0  0
    1.6430    1.8595   -6.2551 C   0  0  0  0  0  0  0  0  0  0  0  0
    2.9063    2.3589   -6.2164 N   0  0  0  0  0  0  0  0  0  0  0  0
    3.2874    2.5468   -4.9285 C   0  0  0  0  0  0  0  0  0  0  0  0
    4.5301    2.4851   -4.3085 C   0  0  0  0  0  0  0  0  0  0  0  0
    4.5218    2.3864   -2.9223 C   0  0  0  0  0  0  0  0  0  0  0  0
    3.4176    2.8828   -2.2397 C   0  0  0  0  0  0  0  0  0  0  0  0
    2.3359    3.3320   -2.9895 C   0  0  0  0  0  0  0  0  0  0  0  0
    2.1207    2.6420   -4.1648 C   0  0  0  0  0  0  0  0  0  0  0  0
    4.3169    2.2709   -1.3597 O   0  0  0  0  0  0  0  0  0  0  0  0
    4.7684    1.5248   -0.3182 N   0  0  0  0  0  0  0  0  0  0  0  0
    5.1937    2.3027    0.8307 C   0  0  0  0  0  0  0  0  0  0  0  0
    4.2027    2.1401    1.9926 C   0  0  0  0  0  0  0  0  0  0  0  0
    3.9686    0.9548    2.7477 C   0  0  0  0  0  0  0  0  0  0  0  0
    4.7889    0.8503    3.9162 C   0  0  0  0  0  0  0  0  0  0  0  0
    4.8237    2.2060    4.3666 C   0  0  0  0  0  0  0  0  0  0  0  0
    3.5902    2.9100    4.2138 C   0  0  0  0  0  0  0  0  0  0  0  0
    3.5465    3.1193    2.8006 C   0  0  0  0  0  0  0  0  0  0  0  0
    2.4871    3.0253    5.2696 C   0  0  0  0  0  0  0  0  0  0  0  0
    2.9320    3.8673    6.3802 N   0  0  0  0  0  0  0  0  0  0  0  0
    1.9021    4.5178    6.9874 O   0  0  0  0  0  0  0  0  0  0  0  0
    0.8605    5.3628    7.3836 C   0  0  0  0  0  0  0  0  0  0  0  0
    1.2149    4.5205    8.4318 C   0  0  0  0  0  0  0  0  0  0  0  0
    0.1680    4.2021    9.2925 C   0  0  0  0  0  0  0  0  0  0  0  0
   -1.1517    4.3740    8.8765 C   0  0  0  0  0  0  0  0  0  0  0  0
   -2.1271    3.4373    9.0024 N   0  0  0  0  0  0  0  0  0  0  0  0
   -2.8368    3.3540    7.8462 C   0  0  0  0  0  0  0  0  0  0  0  0
   -2.5833    4.5677    7.2160 C   0  0  0  0  0  0  0  0  0  0  0  0
   -3.7848    4.0263    6.5587 C   0  0  0  0  0  0  0  0  0  0  0  0
   -4.2033    3.6863    7.7081 O   0  0  0  0  0  0  0  0  0  0  0  0
   -4.9478    3.5293    5.8083 C   0  0  0  0  0  0  0  0  0  0  0  0
   -5.3285    2.8205    6.7613 O   0  0  0  0  0  0  0  0  0  0  0  0
   -5.5020    2.7109    4.7634 N   0  0  0  0  0  0  0  0  0  0  0  0
   -5.8745    1.8504    3.6869 C   0  0  0  0  0  0  0  0  0  0  0  0
   -1.4506    5.1751    7.7696 C   0  0  0  0  0  0  0  0  0  0  0  0
   -0.3823    5.9866    7.3919 C   0  0  0  0  0  0  0  0  0  0  0  0
    5.4332   -0.3637    4.5773 C   0  0  0  0  0  0  0  0  0  0  0  0
    6.8724   -0.2355    4.7069 N   0  0  0  0  0  0  0  0  0  0  0  0
    7.5332   -1.4186    4.5743 O   0  0  0  0  0  0  0  0  0  0  0  0
    7.9641   -2.7467    4.5078 C   0  0  0  0  0  0  0  0  0  0  0  0
    9.0133   -1.8870    4.2033 C   0  0  0  0  0  0  0  0  0  0  0  0
    9.9422   -2.4008    3.3047 C   0  0  0  0  0  0  0  0  0  0  0  0
    9.6147   -3.4962    2.5092 C   0  0  0  0  0  0  0  0  0  0  0  0
    9.8444   -3.5522    1.1721 N   0  0  0  0  0  0  0  0  0  0  0  0
    8.8250   -4.2082    0.5588 C   0  0  0  0  0  0  0  0  0  0  0  0
    8.1361   -4.8400    1.5877 C   0  0  0  0  0  0  0  0  0  0  0  0
    7.7142   -5.5104    0.3438 C   0  0  0  0  0  0  0  0  0  0  0  0
    8.9321   -5.4894   -0.0222 O   0  0  0  0  0  0  0  0  0  0  0  0
    8.5210   -4.3064    2.8236 C   0  0  0  0  0  0  0  0  0  0  0  0
    8.0134   -4.0738    4.0980 C   0  0  0  0  0  0  0  0  0  0  0  0
    0.8559   -2.3774   -4.3000 C   0  0  0  0  0  0  0  0  0  0  0  0
    2.1102   -2.9785   -4.3161 C   0  0  0  0  0  0  0  0  0  0  0  0
    7.1800   -6.9517   -2.3876 H   0  0  0  0  0  0  0  0  0  0  0  0
    5.6465   -8.2319   -3.0338 H   0  0  0  0  0  0  0  0  0  0  0  0
    5.6345   -6.5923   -3.6094 H   0  0  0  0  0  0  0  0  0  0  0  0
    3.9742   -4.9450   -1.3632 H   0  0  0  0  0  0  0  0  0  0  0  0
    0.4406   -5.6811   -2.2913 H   0  0  0  0  0  0  0  0  0  0  0  0
    2.8357   -8.8950   -1.9381 H   0  0  0  0  0  0  0  0  0  0  0  0
    1.2903   -8.6151   -4.7347 H   0  0  0  0  0  0  0  0  0  0  0  0
    0.4328   -7.1467   -4.7803 H   0  0  0  0  0  0  0  0  0  0  0  0
    2.0970   -7.2165   -6.3667 H   0  0  0  0  0  0  0  0  0  0  0  0
    1.5717   -5.2827   -6.7288 H   0  0  0  0  0  0  0  0  0  0  0  0
    0.0310   -3.4708   -7.4048 H   0  0  0  0  0  0  0  0  0  0  0  0
   -2.0082   -2.4489   -5.8271 H   0  0  0  0  0  0  0  0  0  0  0  0
   -2.0336   -2.5392   -3.1748 H   0  0  0  0  0  0  0  0  0  0  0  0
   -2.5560    1.4151   -1.3665 H   0  0  0  0  0  0  0  0  0  0  0  0
   -2.8782    2.2950    0.5525 H   0  0  0  0  0  0  0  0  0  0  0  0
   -4.1447    1.4452   -0.2714 H   0  0  0  0  0  0  0  0  0  0  0  0
   -5.3636   -0.6585    1.7694 H   0  0  0  0  0  0  0  0  0  0  0  0
   -3.8739   -0.2178    5.1732 H   0  0  0  0  0  0  0  0  0  0  0  0
   -1.6823   -0.8032    2.2021 H   0  0  0  0  0  0  0  0  0  0  0  0
   -1.5331    1.8687    5.2722 H   0  0  0  0  0  0  0  0  0  0  0  0
   -0.4372    1.4396    4.0437 H   0  0  0  0  0  0  0  0  0  0  0  0
   -0.7465    3.2964    3.4356 H   0  0  0  0  0  0  0  0  0  0  0  0
   -3.0132    6.9540    2.0081 H   0  0  0  0  0  0  0  0  0  0  0  0
   -2.5587    7.7680   -0.4307 H   0  0  0  0  0  0  0  0  0  0  0  0
   -3.6215    6.6244   -2.8689 H   0  0  0  0  0  0  0  0  0  0  0  0
   -5.2447    5.0260   -3.6182 H   0  0  0  0  0  0  0  0  0  0  0  0
   -7.1846    5.6583    0.1040 H   0  0  0  0  0  0  0  0  0  0  0  0
   -7.5283    5.5563   -4.6533 H   0  0  0  0  0  0  0  0  0  0  0  0
   -8.5105    3.3366   -3.5527 H   0  0  0  0  0  0  0  0  0  0  0  0
   -9.0063    3.8570   -5.1400 H   0  0  0  0  0  0  0  0  0  0  0  0
   -6.7077    2.5990   -7.2747 H   0  0  0  0  0  0  0  0  0  0  0  0
   -4.7506   -0.1835   -5.7369 H   0  0  0  0  0  0  0  0  0  0  0  0
   -8.3287    0.3273   -4.7739 H   0  0  0  0  0  0  0  0  0  0  0  0
   -4.8663    0.7328   -2.4456 H   0  0  0  0  0  0  0  0  0  0  0  0
   -6.5232    0.7324   -2.0338 H   0  0  0  0  0  0  0  0  0  0  0  0
   -6.8576   -1.1343   -2.0906 H   0  0  0  0  0  0  0  0  0  0  0  0
   -6.6862   -5.3699   -1.2367 H   0  0  0  0  0  0  0  0  0  0  0  0
   -6.1904   -6.5613    1.0043 H   0  0  0  0  0  0  0  0  0  0  0  0
   -3.6393   -6.6130    2.5116 H   0  0  0  0  0  0  0  0  0  0  0  0
   -1.2264   -6.2776    1.9898 H   0  0  0  0  0  0  0  0  0  0  0  0
   -2.3831   -7.3440   -1.9501 H   0  0  0  0  0  0  0  0  0  0  0  0
    0.8375   -4.6859    0.5701 H   0  0  0  0  0  0  0  0  0  0  0  0
    1.5721   -7.5670    0.5858 H   0  0  0  0  0  0  0  0  0  0  0  0
    2.5886   -6.2899    1.1697 H   0  0  0  0  0  0  0  0  0  0  0  0
   -3.8915    3.2650   -4.5232 H   0  0  0  0  0  0  0  0  0  0  0  0
   -4.0555    3.8721   -6.1435 H   0  0  0  0  0  0  0  0  0  0  0  0
   -2.7501    2.8303   -7.0282 H   0  0  0  0  0  0  0  0  0  0  0  0
    1.4995    0.8638   -6.7085 H   0  0  0  0  0  0  0  0  0  0  0  0
    3.4583    2.6145   -7.0516 H   0  0  0  0  0  0  0  0  0  0  0  0
    5.4184    2.2008   -4.8624 H   0  0  0  0  0  0  0  0  0  0  0  0
    5.4538    2.4061   -2.3547 H   0  0  0  0  0  0  0  0  0  0  0  0
    1.7473    4.1358   -2.5899 H   0  0  0  0  0  0  0  0  0  0  0  0
    5.5682    0.9432   -0.6805 H   0  0  0  0  0  0  0  0  0  0  0  0
    6.2361    2.1198    1.1278 H   0  0  0  0  0  0  0  0  0  0  0  0
    5.2156    3.3249    0.4392 H   0  0  0  0  0  0  0  0  0  0  0  0
    3.2820    0.1718    2.4168 H   0  0  0  0  0  0  0  0  0  0  0  0
    5.7137    2.6864    4.7850 H   0  0  0  0  0  0  0  0  0  0  0  0
    3.0663    3.9989    2.3632 H   0  0  0  0  0  0  0  0  0  0  0  0
    2.0753    2.0647    5.5884 H   0  0  0  0  0  0  0  0  0  0  0  0
    1.6165    3.5879    4.9153 H   0  0  0  0  0  0  0  0  0  0  0  0
    3.6763    4.5149    6.0676 H   0  0  0  0  0  0  0  0  0  0  0  0
    2.0686    3.8497    8.3314 H   0  0  0  0  0  0  0  0  0  0  0  0
    0.4255    3.6741   10.2003 H   0  0  0  0  0  0  0  0  0  0  0  0
   -2.2690    2.7423    9.7718 H   0  0  0  0  0  0  0  0  0  0  0  0
   -2.8302    2.4625    7.1968 H   0  0  0  0  0  0  0  0  0  0  0  0
   -5.9942    2.1221    5.4860 H   0  0  0  0  0  0  0  0  0  0  0  0
   -6.8627    1.4068    3.9728 H   0  0  0  0  0  0  0  0  0  0  0  0
   -6.0010    2.5346    2.8424 H   0  0  0  0  0  0  0  0  0  0  0  0
   -0.4634    7.0641    7.2327 H   0  0  0  0  0  0  0  0  0  0  0  0
    4.9373   -0.6213    5.5477 H   0  0  0  0  0  0  0  0  0  0  0  0
    5.3264   -1.2815    3.9970 H   0  0  0  0  0  0  0  0  0  0  0  0
    7.0348    0.2028    5.6521 H   0  0  0  0  0  0  0  0  0  0  0  0
    8.9050   -0.8272    4.3897 H   0  0  0  0  0  0  0  0  0  0  0  0
   10.7433   -1.7134    3.0297 H   0  0  0  0  0  0  0  0  0  0  0  0
   10.5556   -3.0215    0.6100 H   0  0  0  0  0  0  0  0  0  0  0  0
    8.2048   -3.7180   -0.2087 H   0  0  0  0  0  0  0  0  0  0  0  0
    7.8197   -4.8575    4.8336 H   0  0  0  0  0  0  0  0  0  0  0  0
    3.0346   -2.4772   -4.0192 H   0  0  0  0  0  0  0  0  0  0  0  0
  1  2  2  0
  2  3  1  0
  3  4  1  0
  4  5  1  0
  5  6  1  0
  6  7  2  0
  7  8  1  0
  8  9  2  0
  9 10  1  0
  9 11  1  0
 11 12  1  0
 12 13  1  0
 13 14  1  0
 14 15  2  0
 15 16  1  0
 16 17  2  0
 17 18  1  0
 18 19  1  0
 19 20  2  0
 20 21  1  0
 21 22  2  0
 21 23  1  0
 23 24  2  0
 23 25  1  0
 25 26  1  0
 26 27  1  0
 27 28  1  0
 28 29  2  0
 29 30  1  0
 30 31  2  0
 31 32  1  0
 31 33  1  0
 33 34  1  0
 34 35  1  0
 35 36  2  0
 35 37  1  0
 37 38  2  0
 37 39  1  0
 39 40  2  0
 40 41  1  0
 41 42  1  0
 42 43  2  0
 43 44  1  0
 44 45  2  0
 45 46  1  0
 46 47  2  0
 45 48  1  0
 48 49  1  0
 49 50  1  0
 50 51  1  0
 51 52  2  0
 52 53  1  0
 53 54  2  0
 54 55  1  0
 55 56  2  0
 55 57  1  0
 57 58  1  0
 58 59  1  0
 59 60  2  0
 59 61  1  0
 61 62  2  0
 61 63  1  0
 63 64  2  0
 64 65  1  0
 65 66  1  0
 66 67  2  0
 67 68  1  0
 68 69  2  0
 69 70  1  0
 70 71  2  0
 69 72  1  0
 72 73  1  0
 73 74  1  0
 53 75  1  0
 75 76  1  0
 76 77  1  0
 77 78  2  0
 77 79  1  0
 79 80  2  0
 79 81  1  0
 81 82  2  0
 82 83  1  0
 83 84  1  0
 84 85  2  0
 85 86  1  0
 86 87  2  0
 87 88  1  0
 88 89  2  0
 87 90  1  0
 90 91  1  0
 91 92  1  0
 92 93  1  0
 93 94  1  0
 94 95  2  0
 95 96  1  0
 96 97  2  0
 97 98  1  0
 97 99  1  0
 99100  1  0
100101  1  0
101102  1  0
102103  2  0
103104  1  0
104105  2  0
105106  1  0
106107  1  0
107108  2  0
108109  1  0
109110  2  0
109111  1  0
111112  2  0
111113  1  0
113114  1  0
108115  1  0
115116  2  0
 95117  1  0
117118  1  0
118119  1  0
119120  1  0
120121  2  0
121122  1  0
122123  2  0
123124  1  0
124125  1  0
125126  2  0
126127  1  0
127128  2  0
126129  1  0
129130  2  0
 20131  1  0
131132  2  0
127  2  1  0
 10  5  2  0
132 14  1  0
 74  7  1  0
 89 81  1  0
 98 93  2  0
116102  1  0
130120  1  0
131 17  1  0
 32 27  2  0
 47 39  1  0
 56 51  1  0
 71 63  1  0
 89 84  1  0
115105  1  0
129123  1  0
114 29  1  0
 47 42  1  0
 71 66  1  0
  3133  1  0
  4134  1  0
  4135  1  0
  6136  1  0
  8137  1  0
 10138  1  0
 11139  1  0
 11140  1  0
 12141  1  0
 15142  1  0
 16143  1  0
 18144  1  0
 19145  1  0
 25146  1  0
 26147  1  0
 26148  1  0
 28149  1  0
 30150  1  0
 32151  1  0
 33152  1  0
 33153  1  0
 34154  1  0
 40155  1  0
 41156  1  0
 43157  1  0
 44158  1  0
 46159  1  0
 49160  1  0
 50161  1  0
 50162  1  0
 52163  1  0
 54164  1  0
 56165  1  0
 57166  1  0
 57167  1  0
 58168  1  0
 64169  1  0
 65170  1  0
 67171  1  0
 68172  1  0
 70173  1  0
 73174  1  0
 74175  1  0
 74176  1  0
 75177  1  0
 75178  1  0
 76179  1  0
 82180  1  0
 83181  1  0
 85182  1  0
 86183  1  0
 88184  1  0
 91185  1  0
 92186  1  0
 92187  1  0
 94188  1  0
 96189  1  0
 98190  1  0
 99191  1  0
 99192  1  0
100193  1  0
103194  1  0
104195  1  0
106196  1  0
107197  1  0
113198  1  0
114199  1  0
114200  1  0
116201  1  0
117202  1  0
117203  1  0
118204  1  0
121205  1  0
122206  1  0
124207  1  0
125208  1  0
130209  1  0
132210  1  0
M  END
