
     RDKit          3D

282288  0  0  0  0  0  0  0  0999 V2000
   -6.0927   -6.3337   -3.0570 O   0  0  0  0  0  0  0  0  0  0  0  0
   -5.5429   -6.0657   -3.6767 C   0  0  0  0  0  0  0  0  0  0  0  0
   -4.4603   -6.9366   -3.1158 C   0  0  0  0  0  0  0  0  0  0  0  0
   -4.6324   -7.1812   -1.6425 C   0  0  0  0  0  0  0  0  0  0  0  0
   -3.4699   -6.7087   -0.8166 C   0  0  0  0  0  0  0  0  0  0  0  0
   -2.4352   -7.7834   -0.5782 C   0  0  0  0  0  0  0  0  0  0  0  0
   -1.6240   -7.3863    0.6493 C   0  0  0  0  0  0  0  0  0  0  0  0
   -0.5457   -8.3761    0.9721 C   0  0  0  0  0  0  0  0  0  0  0  0
    0.8399   -7.8981    0.6542 C   0  0  0  0  0  0  0  0  0  0  0  0
    1.2563   -6.8968    1.5643 N   0  0  0  0  0  0  0  0  0  0  0  0
    2.6697   -6.7000    1.7175 C   0  0  0  0  0  0  0  0  0  0  0  0
    3.1706   -5.2928    1.8897 C   0  0  0  0  0  0  0  0  0  0  0  0
    2.8288   -4.3955    2.9469 C   0  0  0  0  0  0  0  0  0  0  0  0
    3.2171   -3.0196    2.7727 C   0  0  0  0  0  0  0  0  0  0  0  0
    2.3241   -2.8016    1.6631 C   0  0  0  0  0  0  0  0  0  0  0  0
    2.6070   -3.5316    0.4687 C   0  0  0  0  0  0  0  0  0  0  0  0
    3.6769   -4.3997    0.8820 C   0  0  0  0  0  0  0  0  0  0  0  0
    1.7488   -3.6329   -0.7458 C   0  0  0  0  0  0  0  0  0  0  0  0
    0.3772   -4.0871   -0.6046 N   0  0  0  0  0  0  0  0  0  0  0  0
   -0.2259   -3.9502   -1.8960 C   0  0  0  0  0  0  0  0  0  0  0  0
   -0.2932   -5.2543   -2.6679 C   0  0  0  0  0  0  0  0  0  0  0  0
    0.5674   -5.2076   -3.9002 C   0  0  0  0  0  0  0  0  0  0  0  0
    1.1794   -6.5620   -4.2321 C   0  0  0  0  0  0  0  0  0  0  0  0
    1.7448   -6.4213   -5.6408 C   0  0  0  0  0  0  0  0  0  0  0  0
    2.8213   -5.3726   -5.6961 C   0  0  0  0  0  0  0  0  0  0  0  0
    2.4168   -4.1573   -6.4852 C   0  0  0  0  0  0  0  0  0  0  0  0
    3.5116   -3.1622   -6.4249 C   0  0  0  0  0  0  0  0  0  0  0  0
    3.7189   -3.2774   -5.2396 O   0  0  0  0  0  0  0  0  0  0  0  0
    4.5140   -2.0587   -6.5845 C   0  0  0  0  0  0  0  0  0  0  0  0
    4.1623   -0.8453   -5.7740 C   0  0  0  0  0  0  0  0  0  0  0  0
    3.9013    0.3557   -6.6127 C   0  0  0  0  0  0  0  0  0  0  0  0
    5.0840    0.7487   -6.6560 O   0  0  0  0  0  0  0  0  0  0  0  0
    3.4059    1.2759   -7.5933 N   0  0  0  0  0  0  0  0  0  0  0  0
    2.9936    2.2988   -8.5189 C   0  0  0  0  0  0  0  0  0  0  0  0
    3.2850    3.7155   -8.1621 C   0  0  0  0  0  0  0  0  0  0  0  0
    4.1512    4.2852   -7.1872 C   0  0  0  0  0  0  0  0  0  0  0  0
    3.5778    4.6226   -5.9268 C   0  0  0  0  0  0  0  0  0  0  0  0
    2.7081    5.6526   -6.3904 C   0  0  0  0  0  0  0  0  0  0  0  0
    1.6454    5.2624   -7.2533 C   0  0  0  0  0  0  0  0  0  0  0  0
    2.4568    4.8603   -8.3540 C   0  0  0  0  0  0  0  0  0  0  0  0
    0.2229    4.9006   -6.9454 C   0  0  0  0  0  0  0  0  0  0  0  0
   -0.1291    4.6042   -5.5993 N   0  0  0  0  0  0  0  0  0  0  0  0
   -0.3914    4.6208   -4.1902 C   0  0  0  0  0  0  0  0  0  0  0  0
   -1.1331    3.6001   -4.3201 O   0  0  0  0  0  0  0  0  0  0  0  0
   -0.9191    4.8165   -2.8026 C   0  0  0  0  0  0  0  0  0  0  0  0
    0.2234    5.1234   -1.8831 C   0  0  0  0  0  0  0  0  0  0  0  0
   -0.1242    4.5817   -0.5290 C   0  0  0  0  0  0  0  0  0  0  0  0
   -1.2556    5.0520   -0.6323 O   0  0  0  0  0  0  0  0  0  0  0  0
   -0.5200    3.9152    0.7541 C   0  0  0  0  0  0  0  0  0  0  0  0
   -1.2688    2.6204    0.4984 C   0  0  0  0  0  0  0  0  0  0  0  0
   -0.8366    1.5099    1.4158 C   0  0  0  0  0  0  0  0  0  0  0  0
   -1.9855    0.7149    1.9744 C   0  0  0  0  0  0  0  0  0  0  0  0
   -1.7811   -0.7836    1.8280 C   0  0  0  0  0  0  0  0  0  0  0  0
   -2.8490   -1.4636    2.6642 C   0  0  0  0  0  0  0  0  0  0  0  0
   -2.2498   -2.4409    3.6564 C   0  0  0  0  0  0  0  0  0  0  0  0
   -2.2009   -1.7881    4.9285 N   0  0  0  0  0  0  0  0  0  0  0  0
   -2.1586   -2.6524    6.0607 C   0  0  0  0  0  0  0  0  0  0  0  0
   -1.0676   -2.4658    7.0755 C   0  0  0  0  0  0  0  0  0  0  0  0
   -1.1543   -2.3137    8.4939 C   0  0  0  0  0  0  0  0  0  0  0  0
   -1.1989   -0.9932    9.0160 C   0  0  0  0  0  0  0  0  0  0  0  0
    0.0907   -0.5654    8.5805 C   0  0  0  0  0  0  0  0  0  0  0  0
    0.3356   -0.5070    7.1820 C   0  0  0  0  0  0  0  0  0  0  0  0
    0.2300   -1.9080    6.9204 C   0  0  0  0  0  0  0  0  0  0  0  0
    0.2261    0.6744    6.2683 C   0  0  0  0  0  0  0  0  0  0  0  0
   -0.9963    1.4219    6.2821 N   0  0  0  0  0  0  0  0  0  0  0  0
   -2.3188    1.9599    6.1712 C   0  0  0  0  0  0  0  0  0  0  0  0
   -1.8329    3.0868    5.8512 O   0  0  0  0  0  0  0  0  0  0  0  0
   -3.6977    2.5376    6.0957 C   0  0  0  0  0  0  0  0  0  0  0  0
   -4.0720    2.6643    4.6455 C   0  0  0  0  0  0  0  0  0  0  0  0
   -4.8452    3.9071    4.4303 C   0  0  0  0  0  0  0  0  0  0  0  0
   -3.8521    4.6075    4.2801 O   0  0  0  0  0  0  0  0  0  0  0  0
   -5.7393    5.0022    3.9936 C   0  0  0  0  0  0  0  0  0  0  0  0
   -5.4788    5.3305    2.5277 C   0  0  0  0  0  0  0  0  0  0  0  0
   -5.7268    4.0737    1.7150 C   0  0  0  0  0  0  0  0  0  0  0  0
   -5.8264    4.3538    0.2383 C   0  0  0  0  0  0  0  0  0  0  0  0
   -6.5460    3.2336   -0.4614 C   0  0  0  0  0  0  0  0  0  0  0  0
   -6.1343    3.0685   -1.8996 C   0  0  0  0  0  0  0  0  0  0  0  0
   -6.2635    1.6423   -2.3850 C   0  0  0  0  0  0  0  0  0  0  0  0
   -5.0533    1.1323   -2.9722 N   0  0  0  0  0  0  0  0  0  0  0  0
   -4.0904    0.9092   -1.9379 C   0  0  0  0  0  0  0  0  0  0  0  0
   -3.0938   -0.2286   -2.1489 C   0  0  0  0  0  0  0  0  0  0  0  0
   -1.6540   -0.2441   -2.2036 C   0  0  0  0  0  0  0  0  0  0  0  0
   -1.0738   -0.0950   -3.4996 C   0  0  0  0  0  0  0  0  0  0  0  0
   -2.2180   -0.1599   -4.3695 C   0  0  0  0  0  0  0  0  0  0  0  0
   -2.8123   -1.4629   -4.2377 C   0  0  0  0  0  0  0  0  0  0  0  0
   -3.2344   -1.4626   -2.8730 C   0  0  0  0  0  0  0  0  0  0  0  0
   -2.6183   -2.6651   -5.1128 C   0  0  0  0  0  0  0  0  0  0  0  0
   -3.8318   -3.1604   -5.7645 N   0  0  0  0  0  0  0  0  0  0  0  0
   -5.0958   -3.8411   -5.7384 C   0  0  0  0  0  0  0  0  0  0  0  0
   -5.7901   -2.8058   -5.6790 O   0  0  0  0  0  0  0  0  0  0  0  0
   -6.2490   -4.7953   -5.7011 C   0  0  0  0  0  0  0  0  0  0  0  0
   -6.5838   -5.1962   -4.2696 C   0  0  0  0  0  0  0  0  0  0  0  0
    0.3696   -0.2402   -3.8673 C   0  0  0  0  0  0  0  0  0  0  0  0
    1.1540    0.9811   -3.7365 N   0  0  0  0  0  0  0  0  0  0  0  0
    2.2072    0.7022   -2.8015 C   0  0  0  0  0  0  0  0  0  0  0  0
    2.1101    1.5653   -1.5762 C   0  0  0  0  0  0  0  0  0  0  0  0
    3.2769    1.3252   -0.6557 C   0  0  0  0  0  0  0  0  0  0  0  0
    3.9830    2.6105   -0.2952 C   0  0  0  0  0  0  0  0  0  0  0  0
    3.7535    3.0178    1.1391 C   0  0  0  0  0  0  0  0  0  0  0  0
    4.5943    4.2635    1.3842 C   0  0  0  0  0  0  0  0  0  0  0  0
    3.9102    5.5108    0.8765 C   0  0  0  0  0  0  0  0  0  0  0  0
    4.7693    6.2251   -0.1230 C   0  0  0  0  0  0  0  0  0  0  0  0
    4.6959    7.3072    0.4557 O   0  0  0  0  0  0  0  0  0  0  0  0
    5.4771    6.8667   -1.2629 C   0  0  0  0  0  0  0  0  0  0  0  0
    6.3274    5.8953   -2.0386 C   0  0  0  0  0  0  0  0  0  0  0  0
    5.4635    5.0751   -2.9246 C   0  0  0  0  0  0  0  0  0  0  0  0
    6.4024    4.9173   -3.7499 O   0  0  0  0  0  0  0  0  0  0  0  0
    4.5079    4.3038   -3.6627 N   0  0  0  0  0  0  0  0  0  0  0  0
    3.5338    3.8404   -4.6585 C   0  0  0  0  0  0  0  0  0  0  0  0
   -2.4252   -0.1963    9.3483 C   0  0  0  0  0  0  0  0  0  0  0  0
   -2.2314    1.1516    9.7884 N   0  0  0  0  0  0  0  0  0  0  0  0
   -1.5930    2.4247    9.9835 C   0  0  0  0  0  0  0  0  0  0  0  0
   -2.6644    3.0116    9.7281 O   0  0  0  0  0  0  0  0  0  0  0  0
   -0.8940    3.7201   10.2071 C   0  0  0  0  0  0  0  0  0  0  0  0
    0.4428    3.5474   10.8750 C   0  0  0  0  0  0  0  0  0  0  0  0
    1.5096    3.2213    9.8728 C   0  0  0  0  0  0  0  0  0  0  0  0
    2.0119    2.4170   10.6391 O   0  0  0  0  0  0  0  0  0  0  0  0
    2.4579    2.8747    8.7642 C   0  0  0  0  0  0  0  0  0  0  0  0
    2.3119    3.9313    7.7070 C   0  0  0  0  0  0  0  0  0  0  0  0
    3.4718    4.0038    6.7582 C   0  0  0  0  0  0  0  0  0  0  0  0
    4.2380    2.7194    6.6346 C   0  0  0  0  0  0  0  0  0  0  0  0
    4.3009    2.2114    5.2028 C   0  0  0  0  0  0  0  0  0  0  0  0
    4.8229    0.8014    5.2036 C   0  0  0  0  0  0  0  0  0  0  0  0
    4.3321   -0.0154    4.0354 C   0  0  0  0  0  0  0  0  0  0  0  0
    4.2710   -1.4188    4.3489 N   0  0  0  0  0  0  0  0  0  0  0  0
    4.4785   -2.2745    3.2053 C   0  0  0  0  0  0  0  0  0  0  0  0
   -4.5816   -7.9286   -3.6204 H   0  0  0  0  0  0  0  0  0  0  0  0
   -3.4539   -6.5816   -3.3824 H   0  0  0  0  0  0  0  0  0  0  0  0
   -5.5460   -6.6275   -1.3218 H   0  0  0  0  0  0  0  0  0  0  0  0
   -4.8124   -8.2431   -1.3939 H   0  0  0  0  0  0  0  0  0  0  0  0
   -3.0495   -5.7809   -1.2289 H   0  0  0  0  0  0  0  0  0  0  0  0
   -3.8809   -6.4438    0.1904 H   0  0  0  0  0  0  0  0  0  0  0  0
   -1.7988   -7.9466   -1.4666 H   0  0  0  0  0  0  0  0  0  0  0  0
   -3.0016   -8.7118   -0.3128 H   0  0  0  0  0  0  0  0  0  0  0  0
   -2.3517   -7.4129    1.4999 H   0  0  0  0  0  0  0  0  0  0  0  0
   -1.2810   -6.3452    0.5788 H   0  0  0  0  0  0  0  0  0  0  0  0
   -0.5630   -8.7075    2.0242 H   0  0  0  0  0  0  0  0  0  0  0  0
   -0.7294   -9.2962    0.3619 H   0  0  0  0  0  0  0  0  0  0  0  0
    0.9616   -7.5723   -0.3933 H   0  0  0  0  0  0  0  0  0  0  0  0
    1.5179   -8.7809    0.7757 H   0  0  0  0  0  0  0  0  0  0  0  0
    0.8077   -7.0569    2.4983 H   0  0  0  0  0  0  0  0  0  0  0  0
    2.9863   -7.1900    0.7571 H   0  0  0  0  0  0  0  0  0  0  0  0
    3.1758   -7.4742    2.3548 H   0  0  0  0  0  0  0  0  0  0  0  0
    2.5030   -4.7016    3.9639 H   0  0  0  0  0  0  0  0  0  0  0  0
    1.6367   -1.9317    1.7319 H   0  0  0  0  0  0  0  0  0  0  0  0
    4.7018   -4.3889    0.4868 H   0  0  0  0  0  0  0  0  0  0  0  0
    2.0003   -4.4642   -1.4584 H   0  0  0  0  0  0  0  0  0  0  0  0
    1.8704   -2.8097   -1.4980 H   0  0  0  0  0  0  0  0  0  0  0  0
   -0.1360   -3.6106    0.1610 H   0  0  0  0  0  0  0  0  0  0  0  0
   -1.2850   -3.6315   -1.7232 H   0  0  0  0  0  0  0  0  0  0  0  0
    0.3117   -3.2340   -2.5310 H   0  0  0  0  0  0  0  0  0  0  0  0
   -1.3338   -5.4730   -3.0186 H   0  0  0  0  0  0  0  0  0  0  0  0
   -0.0341   -6.0632   -1.9703 H   0  0  0  0  0  0  0  0  0  0  0  0
   -0.0460   -4.9369   -4.7934 H   0  0  0  0  0  0  0  0  0  0  0  0
    1.3663   -4.4393   -3.8160 H   0  0  0  0  0  0  0  0  0  0  0  0
    1.9427   -6.8621   -3.4992 H   0  0  0  0  0  0  0  0  0  0  0  0
    0.3365   -7.2934   -4.2963 H   0  0  0  0  0  0  0  0  0  0  0  0
    2.0743   -7.4175   -5.9765 H   0  0  0  0  0  0  0  0  0  0  0  0
    0.8847   -6.0856   -6.2724 H   0  0  0  0  0  0  0  0  0  0  0  0
    3.1160   -5.1470   -4.6555 H   0  0  0  0  0  0  0  0  0  0  0  0
    3.6859   -5.8291   -6.2415 H   0  0  0  0  0  0  0  0  0  0  0  0
    1.5002   -3.6720   -6.1228 H   0  0  0  0  0  0  0  0  0  0  0  0
    2.2359   -4.4812   -7.5204 H   0  0  0  0  0  0  0  0  0  0  0  0
    5.4677   -2.4614   -6.1645 H   0  0  0  0  0  0  0  0  0  0  0  0
    4.6837   -1.8106   -7.6417 H   0  0  0  0  0  0  0  0  0  0  0  0
    3.2558   -1.0956   -5.1829 H   0  0  0  0  0  0  0  0  0  0  0  0
    4.9421   -0.5495   -5.0476 H   0  0  0  0  0  0  0  0  0  0  0  0
    4.3938    1.3677   -7.9554 H   0  0  0  0  0  0  0  0  0  0  0  0
    3.4819    1.9724   -9.4780 H   0  0  0  0  0  0  0  0  0  0  0  0
    1.9495    1.9863   -8.6531 H   0  0  0  0  0  0  0  0  0  0  0  0
    5.2443    4.3718   -7.3687 H   0  0  0  0  0  0  0  0  0  0  0  0
    2.7892    6.6952   -6.0133 H   0  0  0  0  0  0  0  0  0  0  0  0
    2.3880    5.3698   -9.3413 H   0  0  0  0  0  0  0  0  0  0  0  0
   -0.2043    4.0209   -7.4626 H   0  0  0  0  0  0  0  0  0  0  0  0
   -0.4960    5.7099   -7.2590 H   0  0  0  0  0  0  0  0  0  0  0  0
   -0.1976    3.5839   -5.6590 H   0  0  0  0  0  0  0  0  0  0  0  0
   -1.6440    5.6577   -2.7602 H   0  0  0  0  0  0  0  0  0  0  0  0
   -1.4386    3.9213   -2.4351 H   0  0  0  0  0  0  0  0  0  0  0  0
    1.2025    4.7779   -2.2364 H   0  0  0  0  0  0  0  0  0  0  0  0
    0.3121    6.2319   -1.7562 H   0  0  0  0  0  0  0  0  0  0  0  0
   -1.2336    4.5941    1.2746 H   0  0  0  0  0  0  0  0  0  0  0  0
    0.3537    3.7830    1.4066 H   0  0  0  0  0  0  0  0  0  0  0  0
   -1.1049    2.3869   -0.5789 H   0  0  0  0  0  0  0  0  0  0  0  0
   -2.3703    2.7596    0.6270 H   0  0  0  0  0  0  0  0  0  0  0  0
   -0.2056    0.7895    0.8364 H   0  0  0  0  0  0  0  0  0  0  0  0
   -0.1852    1.9458    2.2077 H   0  0  0  0  0  0  0  0  0  0  0  0
   -1.9890    0.9037    3.0782 H   0  0  0  0  0  0  0  0  0  0  0  0
   -2.9496    0.9809    1.5007 H   0  0  0  0  0  0  0  0  0  0  0  0
   -1.9229   -1.1353    0.7955 H   0  0  0  0  0  0  0  0  0  0  0  0
   -0.7585   -1.0561    2.1262 H   0  0  0  0  0  0  0  0  0  0  0  0
   -3.4820   -0.7240    3.2146 H   0  0  0  0  0  0  0  0  0  0  0  0
   -3.5617   -2.0508    2.0433 H   0  0  0  0  0  0  0  0  0  0  0  0
   -2.7406   -3.4218    3.6525 H   0  0  0  0  0  0  0  0  0  0  0  0
   -1.1940   -2.6120    3.3308 H   0  0  0  0  0  0  0  0  0  0  0  0
   -2.7670   -0.9348    5.0152 H   0  0  0  0  0  0  0  0  0  0  0  0
   -2.1845   -3.6938    5.6403 H   0  0  0  0  0  0  0  0  0  0  0  0
   -3.1964   -2.5226    6.3986 H   0  0  0  0  0  0  0  0  0  0  0  0
   -1.2468   -3.2094    9.1492 H   0  0  0  0  0  0  0  0  0  0  0  0
    0.8539   -0.2392    9.3203 H   0  0  0  0  0  0  0  0  0  0  0  0
    1.0770   -2.4893    6.5019 H   0  0  0  0  0  0  0  0  0  0  0  0
    1.0869    1.3918    6.3287 H   0  0  0  0  0  0  0  0  0  0  0  0
    0.3239    0.4574    5.1766 H   0  0  0  0  0  0  0  0  0  0  0  0
   -0.5487    2.3601    6.2795 H   0  0  0  0  0  0  0  0  0  0  0  0
   -3.7034    3.5254    6.5792 H   0  0  0  0  0  0  0  0  0  0  0  0
   -4.4117    1.8367    6.5944 H   0  0  0  0  0  0  0  0  0  0  0  0
   -4.5862    1.7632    4.2463 H   0  0  0  0  0  0  0  0  0  0  0  0
   -3.1241    2.7747    4.0601 H   0  0  0  0  0  0  0  0  0  0  0  0
   -6.7963    4.7193    4.1036 H   0  0  0  0  0  0  0  0  0  0  0  0
   -5.4672    5.9010    4.5724 H   0  0  0  0  0  0  0  0  0  0  0  0
   -4.3955    5.5702    2.3945 H   0  0  0  0  0  0  0  0  0  0  0  0
   -6.1064    6.1767    2.2141 H   0  0  0  0  0  0  0  0  0  0  0  0
   -4.8416    3.4122    1.8593 H   0  0  0  0  0  0  0  0  0  0  0  0
   -6.6664    3.5741    2.0273 H   0  0  0  0  0  0  0  0  0  0  0  0
   -6.3700    5.3150    0.0609 H   0  0  0  0  0  0  0  0  0  0  0  0
   -4.8287    4.4860   -0.2451 H   0  0  0  0  0  0  0  0  0  0  0  0
   -7.6322    3.4317   -0.3737 H   0  0  0  0  0  0  0  0  0  0  0  0
   -6.3482    2.2852    0.0896 H   0  0  0  0  0  0  0  0  0  0  0  0
   -6.8501    3.6817   -2.5036 H   0  0  0  0  0  0  0  0  0  0  0  0
   -5.1339    3.4656   -2.1262 H   0  0  0  0  0  0  0  0  0  0  0  0
   -6.4871    1.0103   -1.4976 H   0  0  0  0  0  0  0  0  0  0  0  0
   -7.1260    1.5129   -3.0834 H   0  0  0  0  0  0  0  0  0  0  0  0
   -4.7162    1.6580   -3.7929 H   0  0  0  0  0  0  0  0  0  0  0  0
   -3.6691    1.9172   -1.9205 H   0  0  0  0  0  0  0  0  0  0  0  0
   -4.6131    0.8419   -0.9498 H   0  0  0  0  0  0  0  0  0  0  0  0
   -1.1109   -0.1461   -1.2393 H   0  0  0  0  0  0  0  0  0  0  0  0
   -2.5649    0.6409   -5.0359 H   0  0  0  0  0  0  0  0  0  0  0  0
   -3.8483   -2.2592   -2.4001 H   0  0  0  0  0  0  0  0  0  0  0  0
   -1.9342   -3.4642   -4.7766 H   0  0  0  0  0  0  0  0  0  0  0  0
   -2.0591   -2.4822   -6.0688 H   0  0  0  0  0  0  0  0  0  0  0  0
   -4.2942   -2.2367   -5.6650 H   0  0  0  0  0  0  0  0  0  0  0  0
   -7.1170   -4.2728   -6.1245 H   0  0  0  0  0  0  0  0  0  0  0  0
   -5.9814   -5.7329   -6.2246 H   0  0  0  0  0  0  0  0  0  0  0  0
   -7.5694   -5.6805   -4.2841 H   0  0  0  0  0  0  0  0  0  0  0  0
   -6.5677   -4.2413   -3.6864 H   0  0  0  0  0  0  0  0  0  0  0  0
    0.9292   -1.1421   -3.5070 H   0  0  0  0  0  0  0  0  0  0  0  0
    0.5852   -0.4961   -4.9389 H   0  0  0  0  0  0  0  0  0  0  0  0
    1.4383    1.4202   -4.6130 H   0  0  0  0  0  0  0  0  0  0  0  0
    3.1712    0.8808   -3.3044 H   0  0  0  0  0  0  0  0  0  0  0  0
    2.2105   -0.3585   -2.4491 H   0  0  0  0  0  0  0  0  0  0  0  0
    2.1951    2.6231   -1.9229 H   0  0  0  0  0  0  0  0  0  0  0  0
    1.1471    1.3598   -1.0845 H   0  0  0  0  0  0  0  0  0  0  0  0
    4.0423    0.6829   -1.1602 H   0  0  0  0  0  0  0  0  0  0  0  0
    2.9607    0.7527    0.2437 H   0  0  0  0  0  0  0  0  0  0  0  0
    3.5233    3.4153   -0.9224 H   0  0  0  0  0  0  0  0  0  0  0  0
    5.0624    2.5832   -0.5024 H   0  0  0  0  0  0  0  0  0  0  0  0
    4.0233    2.2087    1.8318 H   0  0  0  0  0  0  0  0  0  0  0  0
    2.7009    3.3259    1.2243 H   0  0  0  0  0  0  0  0  0  0  0  0
    5.5465    4.1593    0.8415 H   0  0  0  0  0  0  0  0  0  0  0  0
    4.8110    4.3522    2.4615 H   0  0  0  0  0  0  0  0  0  0  0  0
    3.7512    6.2045    1.7380 H   0  0  0  0  0  0  0  0  0  0  0  0
    2.9109    5.3021    0.4646 H   0  0  0  0  0  0  0  0  0  0  0  0
    6.1318    7.6697   -0.8398 H   0  0  0  0  0  0  0  0  0  0  0  0
    4.7915    7.3595   -1.9745 H   0  0  0  0  0  0  0  0  0  0  0  0
    6.9390    5.2605   -1.3794 H   0  0  0  0  0  0  0  0  0  0  0  0
    7.0246    6.5014   -2.6673 H   0  0  0  0  0  0  0  0  0  0  0  0
    5.2858    3.9348   -4.2699 H   0  0  0  0  0  0  0  0  0  0  0  0
    2.5949    3.7988   -4.0902 H   0  0  0  0  0  0  0  0  0  0  0  0
    3.7183    2.7593   -4.6931 H   0  0  0  0  0  0  0  0  0  0  0  0
   -3.2003   -0.1066    8.5755 H   0  0  0  0  0  0  0  0  0  0  0  0
   -2.9679   -0.5487   10.2665 H   0  0  0  0  0  0  0  0  0  0  0  0
   -3.0110    1.5921    9.2874 H   0  0  0  0  0  0  0  0  0  0  0  0
   -1.5333    4.3152   10.8786 H   0  0  0  0  0  0  0  0  0  0  0  0
   -0.8215    4.2234    9.2309 H   0  0  0  0  0  0  0  0  0  0  0  0
    0.7188    4.5339   11.3028 H   0  0  0  0  0  0  0  0  0  0  0  0
    0.3822    2.7480   11.6356 H   0  0  0  0  0  0  0  0  0  0  0  0
    3.4834    2.8934    9.1789 H   0  0  0  0  0  0  0  0  0  0  0  0
    2.1870    1.8617    8.4296 H   0  0  0  0  0  0  0  0  0  0  0  0
    1.3577    3.7312    7.1595 H   0  0  0  0  0  0  0  0  0  0  0  0
    2.2081    4.9105    8.1969 H   0  0  0  0  0  0  0  0  0  0  0  0
    4.1426    4.8539    7.0266 H   0  0  0  0  0  0  0  0  0  0  0  0
    3.0763    4.2438    5.7391 H   0  0  0  0  0  0  0  0  0  0  0  0
    3.8449    1.8967    7.2477 H   0  0  0  0  0  0  0  0  0  0  0  0
    5.2872    2.8870    6.9676 H   0  0  0  0  0  0  0  0  0  0  0  0
    5.0616    2.8513    4.6920 H   0  0  0  0  0  0  0  0  0  0  0  0
    3.3406    2.3225    4.6799 H   0  0  0  0  0  0  0  0  0  0  0  0
    5.9269    0.7859    5.1769 H   0  0  0  0  0  0  0  0  0  0  0  0
    4.4846    0.3163    6.1315 H   0  0  0  0  0  0  0  0  0  0  0  0
    4.9033    0.1985    3.1014 H   0  0  0  0  0  0  0  0  0  0  0  0
    3.2858    0.3246    3.8313 H   0  0  0  0  0  0  0  0  0  0  0  0
    4.8198   -1.6976    5.1791 H   0  0  0  0  0  0  0  0  0  0  0  0
    5.3506   -2.8935    3.4446 H   0  0  0  0  0  0  0  0  0  0  0  0
    4.9569   -1.6470    2.4439 H   0  0  0  0  0  0  0  0  0  0  0  0
  1  2  2  0
  2  3  1  0
  3  4  1  0
  4  5  1  0
  5  6  1  0
  6  7  1  0
  7  8  1  0
  8  9  1  0
  9 10  1  0
 10 11  1  0
 11 12  1  0
 12 13  2  0
 13 14  1  0
 14 15  2  0
 15 16  1  0
 16 17  2  0
 16 18  1  0
 18 19  1  0
 19 20  1  0
 20 21  1  0
 21 22  1  0
 22 23  1  0
 23 24  1  0
 24 25  1  0
 25 26  1  0
 26 27  1  0
 27 28  2  0
 27 29  1  0
 29 30  1  0
 30 31  1  0
 31 32  2  0
 31 33  1  0
 33 34  1  0
 34 35  1  0
 35 36  1  0
 36 37  2  0
 37 38  1  0
 38 39  2  0
 39 40  1  0
 39 41  1  0
 41 42  1  0
 42 43  1  0
 43 44  2  0
 43 45  1  0
 45 46  1  0
 46 47  1  0
 47 48  2  0
 47 49  1  0
 49 50  1  0
 50 51  1  0
 51 52  1  0
 52 53  1  0
 53 54  1  0
 54 55  1  0
 55 56  1  0
 56 57  1  0
 57 58  1  0
 58 59  2  0
 59 60  1  0
 60 61  2  0
 61 62  1  0
 62 63  2  0
 62 64  1  0
 64 65  1  0
 65 66  1  0
 66 67  2  0
 66 68  1  0
 68 69  1  0
 69 70  1  0
 70 71  2  0
 70 72  1  0
 72 73  1  0
 73 74  1  0
 74 75  1  0
 75 76  1  0
 76 77  1  0
 77 78  1  0
 78 79  1  0
 79 80  1  0
 80 81  1  0
 81 82  1  0
 82 83  2  0
 83 84  1  0
 84 85  2  0
 85 86  1  0
 85 87  1  0
 87 88  1  0
 88 89  1  0
 89 90  2  0
 89 91  1  0
 91 92  1  0
 83 93  1  0
 93 94  1  0
 94 95  1  0
 95 96  1  0
 96 97  1  0
 97 98  1  0
 98 99  1  0
 99100  1  0
100101  1  0
101102  1  0
102103  2  0
102104  1  0
104105  1  0
105106  1  0
106107  2  0
106108  1  0
108109  1  0
 60110  1  0
110111  1  0
111112  1  0
112113  2  0
112114  1  0
114115  1  0
115116  1  0
116117  2  0
116118  1  0
118119  1  0
119120  1  0
120121  1  0
121122  1  0
122123  1  0
123124  1  0
124125  1  0
125126  1  0
 92  2  1  0
 17 12  1  0
 40 35  2  0
 63 58  1  0
 86 81  2  0
126 14  1  0
109 37  1  0
  3127  1  0
  3128  1  0
  4129  1  0
  4130  1  0
  5131  1  0
  5132  1  0
  6133  1  0
  6134  1  0
  7135  1  0
  7136  1  0
  8137  1  0
  8138  1  0
  9139  1  0
  9140  1  0
 10141  1  0
 11142  1  0
 11143  1  0
 13144  1  0
 15145  1  0
 17146  1  0
 18147  1  0
 18148  1  0
 19149  1  0
 20150  1  0
 20151  1  0
 21152  1  0
 21153  1  0
 22154  1  0
 22155  1  0
 23156  1  0
 23157  1  0
 24158  1  0
 24159  1  0
 25160  1  0
 25161  1  0
 26162  1  0
 26163  1  0
 29164  1  0
 29165  1  0
 30166  1  0
 30167  1  0
 33168  1  0
 34169  1  0
 34170  1  0
 36171  1  0
 38172  1  0
 40173  1  0
 41174  1  0
 41175  1  0
 42176  1  0
 45177  1  0
 45178  1  0
 46179  1  0
 46180  1  0
 49181  1  0
 49182  1  0
 50183  1  0
 50184  1  0
 51185  1  0
 51186  1  0
 52187  1  0
 52188  1  0
 53189  1  0
 53190  1  0
 54191  1  0
 54192  1  0
 55193  1  0
 55194  1  0
 56195  1  0
 57196  1  0
 57197  1  0
 59198  1  0
 61199  1  0
 63200  1  0
 64201  1  0
 64202  1  0
 65203  1  0
 68204  1  0
 68205  1  0
 69206  1  0
 69207  1  0
 72208  1  0
 72209  1  0
 73210  1  0
 73211  1  0
 74212  1  0
 74213  1  0
 75214  1  0
 75215  1  0
 76216  1  0
 76217  1  0
 77218  1  0
 77219  1  0
 78220  1  0
 78221  1  0
 79222  1  0
 80223  1  0
 80224  1  0
 82225  1  0
 84226  1  0
 86227  1  0
 87228  1  0
 87229  1  0
 88230  1  0
 91231  1  0
 91232  1  0
 92233  1  0
 92234  1  0
 93235  1  0
 93236  1  0
 94237  1  0
 95238  1  0
 95239  1  0
 96240  1  0
 96241  1  0
 97242  1  0
 97243  1  0
 98244  1  0
 98245  1  0
 99246  1  0
 99247  1  0
100248  1  0
100249  1  0
101250  1  0
101251  1  0
104252  1  0
104253  1  0
105254  1  0
105255  1  0
108256  1  0
109257  1  0
109258  1  0
110259  1  0
110260  1  0
111261  1  0
114262  1  0
114263  1  0
115264  1  0
115265  1  0
118266  1  0
118267  1  0
119268  1  0
119269  1  0
120270  1  0
120271  1  0
121272  1  0
121273  1  0
122274  1  0
122275  1  0
123276  1  0
123277  1  0
124278  1  0
124279  1  0
125280  1  0
126281  1  0
126282  1  0
M  END
