
     RDKit          3D

198204  0  0  0  0  0  0  0  0999 V2000
    4.0387    0.3935    5.4956 O   0  0  0  0  0  0  0  0  0  0  0  0
    3.7614   -0.8708    5.5548 P   0  0  0  0  0  0  0  0  0  0  0  0
    4.6186   -1.7102    7.2597 Cl  0  0  0  0  0  0  0  0  0  0  0  0
    2.1113   -1.1164    5.6569 O   0  0  0  0  0  0  0  0  0  0  0  0
    1.4396    0.0470    6.0675 C   0  0  0  0  0  0  0  0  0  0  0  0
   -0.0111   -0.1983    6.3608 C   0  0  0  0  0  0  0  0  0  0  0  0
   -0.7987    0.9739    6.1928 N   0  0  0  0  0  0  0  0  0  0  0  0
   -2.2239    0.6548    6.1987 C   0  0  0  0  0  0  0  0  0  0  0  0
   -3.1609    1.7340    5.7673 C   0  0  0  0  0  0  0  0  0  0  0  0
   -3.3692    2.9897    6.4159 C   0  0  0  0  0  0  0  0  0  0  0  0
   -4.0652    3.9959    5.6605 C   0  0  0  0  0  0  0  0  0  0  0  0
   -3.0120    4.1347    4.6855 C   0  0  0  0  0  0  0  0  0  0  0  0
   -2.7905    2.9975    3.8477 C   0  0  0  0  0  0  0  0  0  0  0  0
   -3.6423    1.9969    4.4363 C   0  0  0  0  0  0  0  0  0  0  0  0
   -1.6538    2.7768    2.9238 C   0  0  0  0  0  0  0  0  0  0  0  0
   -1.8957    3.1663    1.5321 N   0  0  0  0  0  0  0  0  0  0  0  0
   -3.0004    2.4708    0.9572 C   0  0  0  0  0  0  0  0  0  0  0  0
   -2.8145    1.0164    0.7099 C   0  0  0  0  0  0  0  0  0  0  0  0
   -3.9307    0.3291    1.2159 O   0  0  0  0  0  0  0  0  0  0  0  0
   -4.2246   -1.1011    0.3853 P   0  0  0  0  0  0  0  0  0  0  0  0
   -2.8921   -1.5705   -0.1739 O   0  0  0  0  0  0  0  0  0  0  0  0
   -5.5816   -0.8364   -1.1488 Cl  0  0  0  0  0  0  0  0  0  0  0  0
   -4.7443   -2.2938    1.4823 O   0  0  0  0  0  0  0  0  0  0  0  0
   -3.9158   -2.2365    2.5861 C   0  0  0  0  0  0  0  0  0  0  0  0
   -3.1209   -3.5268    2.7791 C   0  0  0  0  0  0  0  0  0  0  0  0
   -2.3290   -3.3257    3.9438 N   0  0  0  0  0  0  0  0  0  0  0  0
   -1.3829   -4.3598    4.2541 C   0  0  0  0  0  0  0  0  0  0  0  0
   -0.2719   -4.6385    3.2949 C   0  0  0  0  0  0  0  0  0  0  0  0
   -0.4164   -5.2235    2.0007 C   0  0  0  0  0  0  0  0  0  0  0  0
    0.7548   -5.1609    1.1640 C   0  0  0  0  0  0  0  0  0  0  0  0
    0.6679   -3.7322    0.9998 C   0  0  0  0  0  0  0  0  0  0  0  0
    0.8726   -2.9483    2.1767 C   0  0  0  0  0  0  0  0  0  0  0  0
    0.9877   -3.9485    3.2045 C   0  0  0  0  0  0  0  0  0  0  0  0
    0.6073   -1.4945    2.3448 C   0  0  0  0  0  0  0  0  0  0  0  0
    1.7944   -0.6521    2.1677 N   0  0  0  0  0  0  0  0  0  0  0  0
    1.3723    0.6292    1.7245 C   0  0  0  0  0  0  0  0  0  0  0  0
    2.4626    1.4962    1.1595 C   0  0  0  0  0  0  0  0  0  0  0  0
    2.1406    2.8373    1.4263 O   0  0  0  0  0  0  0  0  0  0  0  0
    2.2071    3.6529   -0.0650 P   0  0  0  0  0  0  0  0  0  0  0  0
    3.3687    3.0569   -0.8223 O   0  0  0  0  0  0  0  0  0  0  0  0
    2.4465    5.6827    0.2295 Cl  0  0  0  0  0  0  0  0  0  0  0  0
    0.7475    3.3094   -0.8588 O   0  0  0  0  0  0  0  0  0  0  0  0
    0.9421    2.6084   -2.0335 C   0  0  0  0  0  0  0  0  0  0  0  0
    0.0528    1.3699   -1.9992 C   0  0  0  0  0  0  0  0  0  0  0  0
   -0.0884    0.9526   -3.3660 N   0  0  0  0  0  0  0  0  0  0  0  0
   -1.1174    1.7693   -4.0181 C   0  0  0  0  0  0  0  0  0  0  0  0
   -2.0495    0.9579   -4.8498 C   0  0  0  0  0  0  0  0  0  0  0  0
   -3.3794    0.5400   -4.5523 C   0  0  0  0  0  0  0  0  0  0  0  0
   -4.4312    1.3841   -5.0098 C   0  0  0  0  0  0  0  0  0  0  0  0
   -4.2170    1.1861   -6.4043 C   0  0  0  0  0  0  0  0  0  0  0  0
   -3.0073    1.7205   -6.9314 C   0  0  0  0  0  0  0  0  0  0  0  0
   -2.1294    0.8206   -6.2666 C   0  0  0  0  0  0  0  0  0  0  0  0
   -2.7269    3.0733   -7.5068 C   0  0  0  0  0  0  0  0  0  0  0  0
   -1.6200    3.8305   -7.0344 N   0  0  0  0  0  0  0  0  0  0  0  0
   -0.3666    3.3891   -7.5664 C   0  0  0  0  0  0  0  0  0  0  0  0
    0.8323    4.0201   -6.9266 C   0  0  0  0  0  0  0  0  0  0  0  0
    1.6785    3.0657   -6.3832 O   0  0  0  0  0  0  0  0  0  0  0  0
    3.2544    3.6737   -6.2159 P   0  0  0  0  0  0  0  0  0  0  0  0
    3.7863    3.8813   -7.6228 O   0  0  0  0  0  0  0  0  0  0  0  0
    3.1793    5.4518   -5.1634 Cl  0  0  0  0  0  0  0  0  0  0  0  0
    4.2245    2.5480   -5.4263 O   0  0  0  0  0  0  0  0  0  0  0  0
    5.0021    3.1017   -4.4269 C   0  0  0  0  0  0  0  0  0  0  0  0
    6.3016    2.3898   -4.1943 C   0  0  0  0  0  0  0  0  0  0  0  0
    6.2929    1.5809   -2.9771 N   0  0  0  0  0  0  0  0  0  0  0  0
    6.4697    0.1988   -3.4216 C   0  0  0  0  0  0  0  0  0  0  0  0
    5.4390   -0.8154   -3.1129 C   0  0  0  0  0  0  0  0  0  0  0  0
    5.5161   -1.9024   -2.1731 C   0  0  0  0  0  0  0  0  0  0  0  0
    4.8302   -1.4812   -0.9807 C   0  0  0  0  0  0  0  0  0  0  0  0
    3.4852   -1.3209   -1.4330 C   0  0  0  0  0  0  0  0  0  0  0  0
    3.2179   -1.7480   -2.7836 C   0  0  0  0  0  0  0  0  0  0  0  0
    4.0353   -0.7058   -3.3506 C   0  0  0  0  0  0  0  0  0  0  0  0
    2.7934   -3.1027   -3.3422 C   0  0  0  0  0  0  0  0  0  0  0  0
    1.4154   -3.1122   -3.7998 N   0  0  0  0  0  0  0  0  0  0  0  0
    0.6713   -4.2062   -3.2526 C   0  0  0  0  0  0  0  0  0  0  0  0
    0.4036   -5.1844   -4.3908 C   0  0  0  0  0  0  0  0  0  0  0  0
    1.6216   -5.3539   -5.0615 O   0  0  0  0  0  0  0  0  0  0  0  0
    2.3364   -6.8379   -4.7082 P   0  0  0  0  0  0  0  0  0  0  0  0
    3.0767   -7.2961   -5.9416 O   0  0  0  0  0  0  0  0  0  0  0  0
    0.7988   -8.1988   -4.3598 Cl  0  0  0  0  0  0  0  0  0  0  0  0
    3.3697   -6.7355   -3.3614 O   0  0  0  0  0  0  0  0  0  0  0  0
    2.8436   -7.4309   -2.2887 C   0  0  0  0  0  0  0  0  0  0  0  0
    3.0989   -6.7388   -0.9591 C   0  0  0  0  0  0  0  0  0  0  0  0
    1.9132   -6.8972   -0.1706 N   0  0  0  0  0  0  0  0  0  0  0  0
    1.9482   -6.1033    1.0437 C   0  0  0  0  0  0  0  0  0  0  0  0
    5.4289   -0.9517    0.2678 C   0  0  0  0  0  0  0  0  0  0  0  0
    5.3934   -1.8886    1.3979 N   0  0  0  0  0  0  0  0  0  0  0  0
    6.0987   -1.2796    2.4637 C   0  0  0  0  0  0  0  0  0  0  0  0
    5.2837   -0.7395    3.5879 C   0  0  0  0  0  0  0  0  0  0  0  0
    4.4707   -1.6559    4.2219 O   0  0  0  0  0  0  0  0  0  0  0  0
   -5.1328    2.4892   -4.3090 C   0  0  0  0  0  0  0  0  0  0  0  0
   -4.4722    3.1711   -3.2321 N   0  0  0  0  0  0  0  0  0  0  0  0
   -5.0760    4.4151   -2.9258 C   0  0  0  0  0  0  0  0  0  0  0  0
   -5.3909    4.6750   -1.4933 C   0  0  0  0  0  0  0  0  0  0  0  0
   -6.3157    3.8170   -0.9336 O   0  0  0  0  0  0  0  0  0  0  0  0
   -7.4056    4.6787    0.0474 P   0  0  0  0  0  0  0  0  0  0  0  0
   -6.7449    5.9894    0.4152 O   0  0  0  0  0  0  0  0  0  0  0  0
   -9.0948    5.1326   -1.0657 Cl  0  0  0  0  0  0  0  0  0  0  0  0
   -7.8372    3.8278    1.4304 O   0  0  0  0  0  0  0  0  0  0  0  0
   -6.7535    3.6188    2.2491 C   0  0  0  0  0  0  0  0  0  0  0  0
   -7.0461    3.7030    3.7214 C   0  0  0  0  0  0  0  0  0  0  0  0
   -6.0958    4.5908    4.2957 N   0  0  0  0  0  0  0  0  0  0  0  0
   -5.5624    4.2897    5.5659 C   0  0  0  0  0  0  0  0  0  0  0  0
    1.6061    0.8801    5.3519 H   0  0  0  0  0  0  0  0  0  0  0  0
    1.9234    0.3343    7.0337 H   0  0  0  0  0  0  0  0  0  0  0  0
   -0.1444   -0.5420    7.4178 H   0  0  0  0  0  0  0  0  0  0  0  0
   -0.3616   -0.9987    5.6838 H   0  0  0  0  0  0  0  0  0  0  0  0
   -0.6590    1.6715    6.9516 H   0  0  0  0  0  0  0  0  0  0  0  0
   -2.1329   -0.2127    5.4891 H   0  0  0  0  0  0  0  0  0  0  0  0
   -2.5342    0.0171    7.0566 H   0  0  0  0  0  0  0  0  0  0  0  0
   -3.2223    3.1763    7.5024 H   0  0  0  0  0  0  0  0  0  0  0  0
   -2.6343    5.1607    4.4907 H   0  0  0  0  0  0  0  0  0  0  0  0
   -4.5062    1.5193    3.9545 H   0  0  0  0  0  0  0  0  0  0  0  0
   -1.3695    1.7098    2.7062 H   0  0  0  0  0  0  0  0  0  0  0  0
   -0.6088    3.0189    3.2428 H   0  0  0  0  0  0  0  0  0  0  0  0
   -2.0874    4.1880    1.4626 H   0  0  0  0  0  0  0  0  0  0  0  0
   -3.8805    2.6551    1.5837 H   0  0  0  0  0  0  0  0  0  0  0  0
   -3.1925    2.9495   -0.0366 H   0  0  0  0  0  0  0  0  0  0  0  0
   -1.8939    0.5774    1.1128 H   0  0  0  0  0  0  0  0  0  0  0  0
   -2.8079    0.7640   -0.3823 H   0  0  0  0  0  0  0  0  0  0  0  0
   -3.1393   -1.4350    2.4923 H   0  0  0  0  0  0  0  0  0  0  0  0
   -4.4800   -1.9676    3.5149 H   0  0  0  0  0  0  0  0  0  0  0  0
   -2.5639   -3.6649    1.8412 H   0  0  0  0  0  0  0  0  0  0  0  0
   -3.8334   -4.3593    2.8668 H   0  0  0  0  0  0  0  0  0  0  0  0
   -1.9296   -2.3754    3.9856 H   0  0  0  0  0  0  0  0  0  0  0  0
   -1.0623   -3.9106    5.2375 H   0  0  0  0  0  0  0  0  0  0  0  0
   -1.8302   -5.2456    4.7785 H   0  0  0  0  0  0  0  0  0  0  0  0
   -1.2263   -5.9152    1.6857 H   0  0  0  0  0  0  0  0  0  0  0  0
    0.6929   -3.3400   -0.0387 H   0  0  0  0  0  0  0  0  0  0  0  0
    1.8861   -4.1597    3.8005 H   0  0  0  0  0  0  0  0  0  0  0  0
   -0.3039   -1.0277    1.9109 H   0  0  0  0  0  0  0  0  0  0  0  0
    0.3387   -1.1439    3.3798 H   0  0  0  0  0  0  0  0  0  0  0  0
    2.4797   -1.1443    1.5854 H   0  0  0  0  0  0  0  0  0  0  0  0
    0.5075    0.5230    1.0562 H   0  0  0  0  0  0  0  0  0  0  0  0
    0.9978    1.1645    2.6351 H   0  0  0  0  0  0  0  0  0  0  0  0
    2.6225    1.3037    0.0887 H   0  0  0  0  0  0  0  0  0  0  0  0
    3.4183    1.3074    1.6699 H   0  0  0  0  0  0  0  0  0  0  0  0
    0.5243    3.2470   -2.8519 H   0  0  0  0  0  0  0  0  0  0  0  0
    1.9877    2.3580   -2.2502 H   0  0  0  0  0  0  0  0  0  0  0  0
    0.4424    0.5856   -1.3384 H   0  0  0  0  0  0  0  0  0  0  0  0
   -0.9537    1.7532   -1.6891 H   0  0  0  0  0  0  0  0  0  0  0  0
    0.8031    0.9474   -3.8874 H   0  0  0  0  0  0  0  0  0  0  0  0
   -1.5406    2.4330   -3.2359 H   0  0  0  0  0  0  0  0  0  0  0  0
   -0.5071    2.5519   -4.5147 H   0  0  0  0  0  0  0  0  0  0  0  0
   -3.5803   -0.3493   -3.9170 H   0  0  0  0  0  0  0  0  0  0  0  0
   -4.9937    0.7389   -7.0619 H   0  0  0  0  0  0  0  0  0  0  0  0
   -1.4562    0.1370   -6.8255 H   0  0  0  0  0  0  0  0  0  0  0  0
   -3.4977    3.8582   -7.3863 H   0  0  0  0  0  0  0  0  0  0  0  0
   -2.6066    3.0467   -8.6234 H   0  0  0  0  0  0  0  0  0  0  0  0
   -1.6253    4.0929   -6.0433 H   0  0  0  0  0  0  0  0  0  0  0  0
   -0.3071    2.2740   -7.5805 H   0  0  0  0  0  0  0  0  0  0  0  0
   -0.3504    3.6892   -8.6452 H   0  0  0  0  0  0  0  0  0  0  0  0
    0.4928    4.6804   -6.0886 H   0  0  0  0  0  0  0  0  0  0  0  0
    1.4040    4.6858   -7.6064 H   0  0  0  0  0  0  0  0  0  0  0  0
    5.2459    4.1439   -4.7553 H   0  0  0  0  0  0  0  0  0  0  0  0
    4.3731    3.2040   -3.5323 H   0  0  0  0  0  0  0  0  0  0  0  0
    6.5784    1.8102   -5.0868 H   0  0  0  0  0  0  0  0  0  0  0  0
    7.1275    3.1310   -4.0441 H   0  0  0  0  0  0  0  0  0  0  0  0
    5.3577    1.6625   -2.5120 H   0  0  0  0  0  0  0  0  0  0  0  0
    6.9211    0.1389   -4.4491 H   0  0  0  0  0  0  0  0  0  0  0  0
    7.4480    0.1164   -2.8725 H   0  0  0  0  0  0  0  0  0  0  0  0
    6.0088   -2.8699   -2.3343 H   0  0  0  0  0  0  0  0  0  0  0  0
    2.6032   -1.1356   -0.7846 H   0  0  0  0  0  0  0  0  0  0  0  0
    3.5649   -0.0701   -4.1323 H   0  0  0  0  0  0  0  0  0  0  0  0
    3.3774   -3.4951   -4.1833 H   0  0  0  0  0  0  0  0  0  0  0  0
    2.8982   -3.9634   -2.6753 H   0  0  0  0  0  0  0  0  0  0  0  0
    1.3215   -3.0021   -4.8241 H   0  0  0  0  0  0  0  0  0  0  0  0
    1.2663   -4.6607   -2.4492 H   0  0  0  0  0  0  0  0  0  0  0  0
   -0.2834   -3.8643   -2.8283 H   0  0  0  0  0  0  0  0  0  0  0  0
   -0.2897   -4.6620   -5.0902 H   0  0  0  0  0  0  0  0  0  0  0  0
   -0.0145   -6.1310   -4.0173 H   0  0  0  0  0  0  0  0  0  0  0  0
    3.2591   -8.4507   -2.3214 H   0  0  0  0  0  0  0  0  0  0  0  0
    1.7510   -7.5296   -2.4669 H   0  0  0  0  0  0  0  0  0  0  0  0
    3.3807   -5.6835   -1.0737 H   0  0  0  0  0  0  0  0  0  0  0  0
    3.9245   -7.3121   -0.4743 H   0  0  0  0  0  0  0  0  0  0  0  0
    1.7073   -7.8945   -0.0012 H   0  0  0  0  0  0  0  0  0  0  0  0
    2.9437   -5.6500    1.0846 H   0  0  0  0  0  0  0  0  0  0  0  0
    2.0852   -6.8327    1.8509 H   0  0  0  0  0  0  0  0  0  0  0  0
    5.2231    0.0974    0.5945 H   0  0  0  0  0  0  0  0  0  0  0  0
    6.5394   -0.7691    0.2643 H   0  0  0  0  0  0  0  0  0  0  0  0
    5.9069   -2.7412    1.0493 H   0  0  0  0  0  0  0  0  0  0  0  0
    6.8018   -2.0370    2.8943 H   0  0  0  0  0  0  0  0  0  0  0  0
    6.7587   -0.4496    2.1125 H   0  0  0  0  0  0  0  0  0  0  0  0
    6.0060   -0.3772    4.3639 H   0  0  0  0  0  0  0  0  0  0  0  0
    4.6666    0.1331    3.3311 H   0  0  0  0  0  0  0  0  0  0  0  0
   -6.1241    2.1825   -3.8788 H   0  0  0  0  0  0  0  0  0  0  0  0
   -5.4284    3.3808   -4.9078 H   0  0  0  0  0  0  0  0  0  0  0  0
   -4.4788    2.5266   -2.4003 H   0  0  0  0  0  0  0  0  0  0  0  0
   -5.9842    4.5376   -3.5327 H   0  0  0  0  0  0  0  0  0  0  0  0
   -4.3760    5.2250   -3.2535 H   0  0  0  0  0  0  0  0  0  0  0  0
   -4.4494    4.7639   -0.9300 H   0  0  0  0  0  0  0  0  0  0  0  0
   -5.8510    5.6966   -1.4528 H   0  0  0  0  0  0  0  0  0  0  0  0
   -5.9635    4.3446    1.9275 H   0  0  0  0  0  0  0  0  0  0  0  0
   -6.3262    2.6141    2.0020 H   0  0  0  0  0  0  0  0  0  0  0  0
   -6.8897    2.6949    4.1821 H   0  0  0  0  0  0  0  0  0  0  0  0
   -8.0934    3.9849    3.9472 H   0  0  0  0  0  0  0  0  0  0  0  0
   -6.4542    5.5671    4.1676 H   0  0  0  0  0  0  0  0  0  0  0  0
   -5.8519    5.1655    6.2059 H   0  0  0  0  0  0  0  0  0  0  0  0
   -6.2427    3.4928    5.8721 H   0  0  0  0  0  0  0  0  0  0  0  0
  1  2  2  0
  2  3  1  0
  2  4  1  0
  4  5  1  0
  5  6  1  0
  6  7  1  0
  7  8  1  0
  8  9  1  0
  9 10  2  0
 10 11  1  0
 11 12  2  0
 12 13  1  0
 13 14  2  0
 13 15  1  0
 15 16  1  0
 16 17  1  0
 17 18  1  0
 18 19  1  0
 19 20  1  0
 20 21  2  0
 20 22  1  0
 20 23  1  0
 23 24  1  0
 24 25  1  0
 25 26  1  0
 26 27  1  0
 27 28  1  0
 28 29  2  0
 29 30  1  0
 30 31  2  0
 31 32  1  0
 32 33  2  0
 32 34  1  0
 34 35  1  0
 35 36  1  0
 36 37  1  0
 37 38  1  0
 38 39  1  0
 39 40  2  0
 39 41  1  0
 39 42  1  0
 42 43  1  0
 43 44  1  0
 44 45  1  0
 45 46  1  0
 46 47  1  0
 47 48  1  0
 48 49  2  0
 49 50  1  0
 50 51  2  0
 51 52  1  0
 51 53  1  0
 53 54  1  0
 54 55  1  0
 55 56  1  0
 56 57  1  0
 57 58  1  0
 58 59  2  0
 58 60  1  0
 58 61  1  0
 61 62  1  0
 62 63  1  0
 63 64  1  0
 64 65  1  0
 65 66  1  0
 66 67  1  0
 67 68  2  0
 68 69  1  0
 69 70  2  0
 70 71  1  0
 70 72  1  0
 72 73  1  0
 73 74  1  0
 74 75  1  0
 75 76  1  0
 76 77  1  0
 77 78  2  0
 77 79  1  0
 77 80  1  0
 80 81  1  0
 81 82  1  0
 82 83  1  0
 83 84  1  0
 68 85  1  0
 85 86  1  0
 86 87  1  0
 87 88  1  0
 88 89  1  0
 49 90  1  0
 90 91  1  0
 91 92  1  0
 92 93  1  0
 93 94  1  0
 94 95  1  0
 95 96  2  0
 95 97  1  0
 95 98  1  0
 98 99  1  0
 99100  1  0
100101  1  0
101102  1  0
 89  2  1  0
 14  9  1  0
 33 28  1  0
 52 47  2  0
 71 66  2  0
102 11  1  0
 84 30  1  0
  5103  1  0
  5104  1  0
  6105  1  0
  6106  1  0
  7107  1  0
  8108  1  0
  8109  1  0
 10110  1  0
 12111  1  0
 14112  1  0
 15113  1  0
 15114  1  0
 16115  1  0
 17116  1  0
 17117  1  0
 18118  1  0
 18119  1  0
 24120  1  0
 24121  1  0
 25122  1  0
 25123  1  0
 26124  1  0
 27125  1  0
 27126  1  0
 29127  1  0
 31128  1  0
 33129  1  0
 34130  1  0
 34131  1  0
 35132  1  0
 36133  1  0
 36134  1  0
 37135  1  0
 37136  1  0
 43137  1  0
 43138  1  0
 44139  1  0
 44140  1  0
 45141  1  0
 46142  1  0
 46143  1  0
 48144  1  0
 50145  1  0
 52146  1  0
 53147  1  0
 53148  1  0
 54149  1  0
 55150  1  0
 55151  1  0
 56152  1  0
 56153  1  0
 62154  1  0
 62155  1  0
 63156  1  0
 63157  1  0
 64158  1  0
 65159  1  0
 65160  1  0
 67161  1  0
 69162  1  0
 71163  1  0
 72164  1  0
 72165  1  0
 73166  1  0
 74167  1  0
 74168  1  0
 75169  1  0
 75170  1  0
 81171  1  0
 81172  1  0
 82173  1  0
 82174  1  0
 83175  1  0
 84176  1  0
 84177  1  0
 85178  1  0
 85179  1  0
 86180  1  0
 87181  1  0
 87182  1  0
 88183  1  0
 88184  1  0
 90185  1  0
 90186  1  0
 91187  1  0
 92188  1  0
 92189  1  0
 93190  1  0
 93191  1  0
 99192  1  0
 99193  1  0
100194  1  0
100195  1  0
101196  1  0
102197  1  0
102198  1  0
M  END
