
     RDKit          3D

204222  0  0  0  0  0  0  0  0999 V2000
   -1.9773    5.3582   -0.8916 C   0  0  0  0  0  0  0  0  0  0  0  0
   -3.4089    5.2607   -0.7693 C   0  0  0  0  0  0  0  0  0  0  0  0
   -3.4544    6.1281    0.3762 C   0  0  0  0  0  0  0  0  0  0  0  0
   -2.8807    5.5873    1.5655 C   0  0  0  0  0  0  0  0  0  0  0  0
   -2.2553    4.3734    1.1132 C   0  0  0  0  0  0  0  0  0  0  0  0
   -1.2405    4.7366    0.1614 C   0  0  0  0  0  0  0  0  0  0  0  0
    0.2019    4.8654    0.4169 C   0  0  0  0  0  0  0  0  0  0  0  0
    1.0424    3.8374   -0.2119 N   0  0  0  0  0  0  0  0  0  0  0  0
    1.6151    4.2961   -1.3675 O   0  0  0  0  0  0  0  0  0  0  0  0
    2.0433    4.4933   -2.6846 C   0  0  0  0  0  0  0  0  0  0  0  0
    3.1540    4.5850   -1.8548 C   0  0  0  0  0  0  0  0  0  0  0  0
    4.4411    4.6432   -2.3750 C   0  0  0  0  0  0  0  0  0  0  0  0
    5.7942    4.8725   -1.7825 C   0  0  0  0  0  0  0  0  0  0  0  0
    6.6169    5.5248   -2.8673 C   0  0  0  0  0  0  0  0  0  0  0  0
    5.9014    5.1578   -4.0847 N   0  0  0  0  0  0  0  0  0  0  0  0
    4.6562    4.5407   -3.7387 C   0  0  0  0  0  0  0  0  0  0  0  0
    3.5956    4.0784   -4.5068 C   0  0  0  0  0  0  0  0  0  0  0  0
    2.3251    4.1533   -4.0049 C   0  0  0  0  0  0  0  0  0  0  0  0
    2.2670    3.5960   -5.2892 O   0  0  0  0  0  0  0  0  0  0  0  0
    1.8591    3.0943   -6.5157 N   0  0  0  0  0  0  0  0  0  0  0  0
    1.0643    1.8717   -6.3434 C   0  0  0  0  0  0  0  0  0  0  0  0
    1.1778    1.2617   -5.0133 C   0  0  0  0  0  0  0  0  0  0  0  0
    2.0165    0.1781   -4.6069 C   0  0  0  0  0  0  0  0  0  0  0  0
    1.7270   -0.3702   -3.3063 C   0  0  0  0  0  0  0  0  0  0  0  0
    0.4561   -0.8977   -3.7370 C   0  0  0  0  0  0  0  0  0  0  0  0
   -0.5466    0.0816   -4.0060 C   0  0  0  0  0  0  0  0  0  0  0  0
    0.1908    1.3192   -3.9674 C   0  0  0  0  0  0  0  0  0  0  0  0
   -1.8267   -0.1540   -4.7049 C   0  0  0  0  0  0  0  0  0  0  0  0
   -1.7559   -0.5423   -6.1127 N   0  0  0  0  0  0  0  0  0  0  0  0
   -1.5930   -1.9170   -6.1654 O   0  0  0  0  0  0  0  0  0  0  0  0
   -1.4705   -3.2965   -5.9724 C   0  0  0  0  0  0  0  0  0  0  0  0
   -0.5375   -2.9277   -6.9221 C   0  0  0  0  0  0  0  0  0  0  0  0
    0.6448   -3.6351   -7.1045 C   0  0  0  0  0  0  0  0  0  0  0  0
    1.8539   -3.2400   -7.7632 N   0  0  0  0  0  0  0  0  0  0  0  0
    3.0056   -3.6615   -6.9731 C   0  0  0  0  0  0  0  0  0  0  0  0
    2.4472   -4.6492   -5.9863 C   0  0  0  0  0  0  0  0  0  0  0  0
    0.9730   -4.6169   -6.1772 C   0  0  0  0  0  0  0  0  0  0  0  0
   -0.0360   -5.1475   -5.4030 C   0  0  0  0  0  0  0  0  0  0  0  0
   -1.2800   -4.5303   -5.3615 C   0  0  0  0  0  0  0  0  0  0  0  0
   -1.3264   -5.6469   -4.5210 O   0  0  0  0  0  0  0  0  0  0  0  0
   -1.7234   -6.7128   -3.7900 N   0  0  0  0  0  0  0  0  0  0  0  0
   -3.1086   -7.0309   -3.8019 C   0  0  0  0  0  0  0  0  0  0  0  0
   -3.8876   -6.9392   -2.4930 C   0  0  0  0  0  0  0  0  0  0  0  0
   -3.4146   -7.0264   -1.1375 C   0  0  0  0  0  0  0  0  0  0  0  0
   -2.9367   -5.8051   -0.5714 C   0  0  0  0  0  0  0  0  0  0  0  0
   -3.2926   -4.8305   -1.5716 C   0  0  0  0  0  0  0  0  0  0  0  0
   -4.7286   -4.8255   -1.6731 C   0  0  0  0  0  0  0  0  0  0  0  0
   -5.0335   -6.1461   -2.1235 C   0  0  0  0  0  0  0  0  0  0  0  0
   -5.6228   -3.8433   -1.0566 C   0  0  0  0  0  0  0  0  0  0  0  0
   -6.1591   -2.8335   -1.9767 N   0  0  0  0  0  0  0  0  0  0  0  0
   -5.6902   -1.5794   -1.7381 O   0  0  0  0  0  0  0  0  0  0  0  0
   -5.3931   -0.3267   -1.1850 C   0  0  0  0  0  0  0  0  0  0  0  0
   -4.1943   -1.0098   -1.3562 C   0  0  0  0  0  0  0  0  0  0  0  0
   -3.0959   -0.6763   -0.5727 C   0  0  0  0  0  0  0  0  0  0  0  0
   -1.9090   -1.3985   -0.3206 N   0  0  0  0  0  0  0  0  0  0  0  0
   -1.4162   -1.1148    1.0152 C   0  0  0  0  0  0  0  0  0  0  0  0
   -2.2979   -0.0183    1.5480 C   0  0  0  0  0  0  0  0  0  0  0  0
   -3.3108    0.1867    0.4955 C   0  0  0  0  0  0  0  0  0  0  0  0
   -4.3942    1.0552    0.4254 C   0  0  0  0  0  0  0  0  0  0  0  0
   -5.3322    0.9312   -0.5920 C   0  0  0  0  0  0  0  0  0  0  0  0
   -5.3407    2.2647   -0.1684 O   0  0  0  0  0  0  0  0  0  0  0  0
   -5.2637    3.6117   -0.2642 N   0  0  0  0  0  0  0  0  0  0  0  0
   -4.3770    4.1650   -1.2046 C   0  0  0  0  0  0  0  0  0  0  0  0
   -2.6784   -5.5434    0.8586 C   0  0  0  0  0  0  0  0  0  0  0  0
   -3.8299   -5.5464    1.7617 N   0  0  0  0  0  0  0  0  0  0  0  0
   -3.5670   -4.9425    2.9380 O   0  0  0  0  0  0  0  0  0  0  0  0
   -3.1254   -4.0430    3.9140 C   0  0  0  0  0  0  0  0  0  0  0  0
   -3.5224   -5.2525    4.4707 C   0  0  0  0  0  0  0  0  0  0  0  0
   -3.1769   -5.5487    5.7717 C   0  0  0  0  0  0  0  0  0  0  0  0
   -3.0697   -6.8502    6.5002 C   0  0  0  0  0  0  0  0  0  0  0  0
   -2.7516   -6.4463    7.9136 C   0  0  0  0  0  0  0  0  0  0  0  0
   -2.7392   -5.0045    7.8880 N   0  0  0  0  0  0  0  0  0  0  0  0
   -2.6648   -4.5262    6.5399 C   0  0  0  0  0  0  0  0  0  0  0  0
   -2.3399   -3.2814    6.0152 C   0  0  0  0  0  0  0  0  0  0  0  0
   -2.6060   -3.0154    4.6927 C   0  0  0  0  0  0  0  0  0  0  0  0
   -2.1322   -1.8586    5.3208 O   0  0  0  0  0  0  0  0  0  0  0  0
   -1.7409   -0.5640    5.4930 N   0  0  0  0  0  0  0  0  0  0  0  0
   -0.3313   -0.3510    5.1482 C   0  0  0  0  0  0  0  0  0  0  0  0
    0.4846    0.1153    6.2938 C   0  0  0  0  0  0  0  0  0  0  0  0
    1.0309    1.4007    6.5734 C   0  0  0  0  0  0  0  0  0  0  0  0
    2.3193    1.6464    6.0138 C   0  0  0  0  0  0  0  0  0  0  0  0
    3.0315    0.7302    6.8402 C   0  0  0  0  0  0  0  0  0  0  0  0
    2.7391   -0.6484    6.6425 C   0  0  0  0  0  0  0  0  0  0  0  0
    1.3935   -0.6200    7.1060 C   0  0  0  0  0  0  0  0  0  0  0  0
    3.4020   -1.5944    5.6905 C   0  0  0  0  0  0  0  0  0  0  0  0
    2.6206   -2.5579    5.0042 N   0  0  0  0  0  0  0  0  0  0  0  0
    2.4483   -2.3892    3.6720 O   0  0  0  0  0  0  0  0  0  0  0  0
    2.4602   -2.3303    2.2747 C   0  0  0  0  0  0  0  0  0  0  0  0
    1.7364   -3.4581    2.6373 C   0  0  0  0  0  0  0  0  0  0  0  0
    1.3939   -4.4407    1.7144 C   0  0  0  0  0  0  0  0  0  0  0  0
    1.1922   -5.8289    2.0062 N   0  0  0  0  0  0  0  0  0  0  0  0
    1.4316   -6.6381    0.8419 C   0  0  0  0  0  0  0  0  0  0  0  0
    1.6897   -5.6571   -0.2672 C   0  0  0  0  0  0  0  0  0  0  0  0
    1.8072   -4.3247    0.4014 C   0  0  0  0  0  0  0  0  0  0  0  0
    2.4039   -3.1237    0.0494 C   0  0  0  0  0  0  0  0  0  0  0  0
    2.4444   -2.0374    0.9151 C   0  0  0  0  0  0  0  0  0  0  0  0
    2.6871   -1.6547   -0.4082 O   0  0  0  0  0  0  0  0  0  0  0  0
    3.2223   -0.8581   -1.3869 N   0  0  0  0  0  0  0  0  0  0  0  0
    2.2153    0.0537   -1.9286 C   0  0  0  0  0  0  0  0  0  0  0  0
    2.6951    2.1691    4.6739 C   0  0  0  0  0  0  0  0  0  0  0  0
    3.3821    3.4607    4.7351 N   0  0  0  0  0  0  0  0  0  0  0  0
    2.6475    4.4949    4.2720 O   0  0  0  0  0  0  0  0  0  0  0  0
    1.8643    5.6473    4.1401 C   0  0  0  0  0  0  0  0  0  0  0  0
    3.1484    5.9549    3.7069 C   0  0  0  0  0  0  0  0  0  0  0  0
    3.4213    7.0666    2.9288 C   0  0  0  0  0  0  0  0  0  0  0  0
    4.4354    7.2299    1.9303 N   0  0  0  0  0  0  0  0  0  0  0  0
    3.9276    8.1586    0.9244 C   0  0  0  0  0  0  0  0  0  0  0  0
    2.9787    8.9924    1.7651 C   0  0  0  0  0  0  0  0  0  0  0  0
    2.4835    8.0587    2.8243 C   0  0  0  0  0  0  0  0  0  0  0  0
    1.1857    7.7678    3.2269 C   0  0  0  0  0  0  0  0  0  0  0  0
    0.8697    6.5899    3.8928 C   0  0  0  0  0  0  0  0  0  0  0  0
   -0.2987    7.0632    3.2807 O   0  0  0  0  0  0  0  0  0  0  0  0
   -1.4764    7.3584    2.6830 N   0  0  0  0  0  0  0  0  0  0  0  0
   -2.5155    6.3694    2.7881 C   0  0  0  0  0  0  0  0  0  0  0  0
   -1.5692    5.6769   -1.8750 H   0  0  0  0  0  0  0  0  0  0  0  0
   -4.1235    7.0129    0.3167 H   0  0  0  0  0  0  0  0  0  0  0  0
   -2.5373    3.3526    1.4044 H   0  0  0  0  0  0  0  0  0  0  0  0
    0.6992    5.8689    0.4142 H   0  0  0  0  0  0  0  0  0  0  0  0
    0.5711    4.6540    1.4608 H   0  0  0  0  0  0  0  0  0  0  0  0
    0.4253    3.0166   -0.3415 H   0  0  0  0  0  0  0  0  0  0  0  0
    3.0642    4.4755   -0.7829 H   0  0  0  0  0  0  0  0  0  0  0  0
    5.7664    5.5411   -0.9091 H   0  0  0  0  0  0  0  0  0  0  0  0
    6.2984    3.9339   -1.5091 H   0  0  0  0  0  0  0  0  0  0  0  0
    6.6531    6.6120   -2.7074 H   0  0  0  0  0  0  0  0  0  0  0  0
    7.6688    5.1586   -2.8821 H   0  0  0  0  0  0  0  0  0  0  0  0
    6.2478    5.3690   -5.0565 H   0  0  0  0  0  0  0  0  0  0  0  0
    3.6980    3.9414   -5.5771 H   0  0  0  0  0  0  0  0  0  0  0  0
    1.3407    3.8507   -6.9734 H   0  0  0  0  0  0  0  0  0  0  0  0
    0.0477    2.2108   -6.6941 H   0  0  0  0  0  0  0  0  0  0  0  0
    1.2267    1.3001   -7.2839 H   0  0  0  0  0  0  0  0  0  0  0  0
    2.9905   -0.0918   -5.0667 H   0  0  0  0  0  0  0  0  0  0  0  0
    0.2824   -1.9815   -3.5634 H   0  0  0  0  0  0  0  0  0  0  0  0
    0.0482    2.1336   -3.2438 H   0  0  0  0  0  0  0  0  0  0  0  0
   -2.6310   -0.7084   -4.1518 H   0  0  0  0  0  0  0  0  0  0  0  0
   -2.4914    0.7460   -4.8403 H   0  0  0  0  0  0  0  0  0  0  0  0
   -2.5926   -0.3255   -6.6493 H   0  0  0  0  0  0  0  0  0  0  0  0
   -0.7524   -2.0054   -7.4635 H   0  0  0  0  0  0  0  0  0  0  0  0
    1.9128   -2.3965   -8.3872 H   0  0  0  0  0  0  0  0  0  0  0  0
    3.7254   -4.0952   -7.6821 H   0  0  0  0  0  0  0  0  0  0  0  0
    3.4295   -2.7607   -6.4778 H   0  0  0  0  0  0  0  0  0  0  0  0
    2.7571   -4.3160   -4.9778 H   0  0  0  0  0  0  0  0  0  0  0  0
    2.8598   -5.6500   -6.2451 H   0  0  0  0  0  0  0  0  0  0  0  0
    0.1069   -5.9895   -4.7258 H   0  0  0  0  0  0  0  0  0  0  0  0
   -1.0814   -7.5147   -3.9249 H   0  0  0  0  0  0  0  0  0  0  0  0
   -3.1926   -8.0492   -4.2670 H   0  0  0  0  0  0  0  0  0  0  0  0
   -3.4484   -6.3850   -4.6160 H   0  0  0  0  0  0  0  0  0  0  0  0
   -3.2395   -8.0434   -0.7254 H   0  0  0  0  0  0  0  0  0  0  0  0
   -2.5897   -4.2402   -2.1762 H   0  0  0  0  0  0  0  0  0  0  0  0
   -6.0297   -6.5097   -2.4521 H   0  0  0  0  0  0  0  0  0  0  0  0
   -6.5039   -4.1390   -0.4343 H   0  0  0  0  0  0  0  0  0  0  0  0
   -5.2313   -3.1909   -0.2264 H   0  0  0  0  0  0  0  0  0  0  0  0
   -7.1853   -2.9022   -2.0808 H   0  0  0  0  0  0  0  0  0  0  0  0
   -4.1921   -1.7794   -2.0997 H   0  0  0  0  0  0  0  0  0  0  0  0
   -1.4382   -1.9998   -1.0173 H   0  0  0  0  0  0  0  0  0  0  0  0
   -0.3992   -0.6846    0.8858 H   0  0  0  0  0  0  0  0  0  0  0  0
   -1.4100   -2.0151    1.6471 H   0  0  0  0  0  0  0  0  0  0  0  0
   -2.7753   -0.3665    2.4896 H   0  0  0  0  0  0  0  0  0  0  0  0
   -1.7527    0.9132    1.7783 H   0  0  0  0  0  0  0  0  0  0  0  0
   -4.4514    1.9672    1.0037 H   0  0  0  0  0  0  0  0  0  0  0  0
   -5.3178    4.0228    0.6696 H   0  0  0  0  0  0  0  0  0  0  0  0
   -5.0205    4.4995   -2.0634 H   0  0  0  0  0  0  0  0  0  0  0  0
   -3.9224    3.2499   -1.6074 H   0  0  0  0  0  0  0  0  0  0  0  0
   -2.3304   -4.5041    1.1189 H   0  0  0  0  0  0  0  0  0  0  0  0
   -1.7716   -6.0109    1.3247 H   0  0  0  0  0  0  0  0  0  0  0  0
   -4.0108   -6.5651    1.9654 H   0  0  0  0  0  0  0  0  0  0  0  0
   -4.1982   -5.9118    3.9256 H   0  0  0  0  0  0  0  0  0  0  0  0
   -2.2543   -7.4404    6.0210 H   0  0  0  0  0  0  0  0  0  0  0  0
   -4.0033   -7.4380    6.4161 H   0  0  0  0  0  0  0  0  0  0  0  0
   -3.5292   -6.8746    8.5627 H   0  0  0  0  0  0  0  0  0  0  0  0
   -1.7492   -6.8695    8.1516 H   0  0  0  0  0  0  0  0  0  0  0  0
   -2.6794   -4.4135    8.7549 H   0  0  0  0  0  0  0  0  0  0  0  0
   -1.9536   -2.4722    6.6301 H   0  0  0  0  0  0  0  0  0  0  0  0
   -1.8015   -0.3631    6.5231 H   0  0  0  0  0  0  0  0  0  0  0  0
   -0.0558   -1.2668    4.6067 H   0  0  0  0  0  0  0  0  0  0  0  0
   -0.4179    0.3107    4.2489 H   0  0  0  0  0  0  0  0  0  0  0  0
    0.4422    2.2064    7.0570 H   0  0  0  0  0  0  0  0  0  0  0  0
    3.8282    1.0634    7.5393 H   0  0  0  0  0  0  0  0  0  0  0  0
    1.0624   -1.2219    7.9777 H   0  0  0  0  0  0  0  0  0  0  0  0
    3.9834   -1.1966    4.8478 H   0  0  0  0  0  0  0  0  0  0  0  0
    4.1514   -2.2508    6.2163 H   0  0  0  0  0  0  0  0  0  0  0  0
    1.7281   -2.7342    5.4969 H   0  0  0  0  0  0  0  0  0  0  0  0
    1.4195   -3.5717    3.6598 H   0  0  0  0  0  0  0  0  0  0  0  0
    0.6729   -6.1578    2.8576 H   0  0  0  0  0  0  0  0  0  0  0  0
    2.2767   -7.3104    1.0533 H   0  0  0  0  0  0  0  0  0  0  0  0
    0.5402   -7.2655    0.6854 H   0  0  0  0  0  0  0  0  0  0  0  0
    2.6333   -5.9457   -0.7540 H   0  0  0  0  0  0  0  0  0  0  0  0
    0.8077   -5.6979   -0.9452 H   0  0  0  0  0  0  0  0  0  0  0  0
    2.6778   -2.9867   -0.9978 H   0  0  0  0  0  0  0  0  0  0  0  0
    3.5561   -1.5131   -2.1429 H   0  0  0  0  0  0  0  0  0  0  0  0
    2.6622    1.0490   -1.8334 H   0  0  0  0  0  0  0  0  0  0  0  0
    1.4686    0.1389   -1.1339 H   0  0  0  0  0  0  0  0  0  0  0  0
    3.3572    1.5447    4.0201 H   0  0  0  0  0  0  0  0  0  0  0  0
    1.9112    2.3552    3.9270 H   0  0  0  0  0  0  0  0  0  0  0  0
    4.3439    3.4245    4.3665 H   0  0  0  0  0  0  0  0  0  0  0  0
    3.9369    5.3950    4.1647 H   0  0  0  0  0  0  0  0  0  0  0  0
    5.2667    6.6011    1.7982 H   0  0  0  0  0  0  0  0  0  0  0  0
    4.7435    8.7546    0.4807 H   0  0  0  0  0  0  0  0  0  0  0  0
    3.3840    7.6326    0.1111 H   0  0  0  0  0  0  0  0  0  0  0  0
    3.5230    9.8559    2.2002 H   0  0  0  0  0  0  0  0  0  0  0  0
    2.1575    9.3086    1.0984 H   0  0  0  0  0  0  0  0  0  0  0  0
    0.3864    8.4344    2.9257 H   0  0  0  0  0  0  0  0  0  0  0  0
   -1.8623    8.2462    3.0992 H   0  0  0  0  0  0  0  0  0  0  0  0
   -2.0783    5.7643    3.6308 H   0  0  0  0  0  0  0  0  0  0  0  0
   -3.3740    6.6956    3.4396 H   0  0  0  0  0  0  0  0  0  0  0  0
  1  2  2  0
  2  3  1  0
  3  4  2  0
  4  5  1  0
  5  6  2  0
  6  7  1  0
  7  8  1  0
  8  9  1  0
  9 10  1  0
 10 11  2  0
 11 12  1  0
 12 13  1  0
 13 14  1  0
 14 15  1  0
 15 16  1  0
 16 17  1  0
 17 18  2  0
 18 19  1  0
 19 20  1  0
 20 21  1  0
 21 22  1  0
 22 23  1  0
 23 24  2  0
 24 25  1  0
 25 26  2  0
 26 27  1  0
 26 28  1  0
 28 29  1  0
 29 30  1  0
 30 31  1  0
 31 32  2  0
 32 33  1  0
 33 34  1  0
 34 35  1  0
 35 36  1  0
 36 37  1  0
 37 38  1  0
 38 39  2  0
 39 40  1  0
 40 41  1  0
 41 42  1  0
 42 43  1  0
 43 44  1  0
 44 45  2  0
 45 46  1  0
 46 47  2  0
 47 48  1  0
 47 49  1  0
 49 50  1  0
 50 51  1  0
 51 52  1  0
 52 53  2  0
 53 54  1  0
 54 55  1  0
 55 56  1  0
 56 57  1  0
 57 58  1  0
 58 59  1  0
 59 60  2  0
 60 61  1  0
 61 62  1  0
 62 63  1  0
 45 64  1  0
 64 65  1  0
 65 66  1  0
 66 67  1  0
 67 68  2  0
 68 69  1  0
 69 70  1  0
 70 71  1  0
 71 72  1  0
 72 73  1  0
 73 74  1  0
 74 75  2  0
 75 76  1  0
 76 77  1  0
 77 78  1  0
 78 79  1  0
 79 80  2  0
 80 81  1  0
 81 82  2  0
 82 83  1  0
 83 84  2  0
 83 85  1  0
 85 86  1  0
 86 87  1  0
 87 88  1  0
 88 89  2  0
 89 90  1  0
 90 91  1  0
 91 92  1  0
 92 93  1  0
 93 94  1  0
 94 95  1  0
 95 96  2  0
 96 97  1  0
 97 98  1  0
 98 99  1  0
 81100  1  0
100101  1  0
101102  1  0
102103  1  0
103104  1  0
104105  2  0
105106  1  0
106107  1  0
107108  1  0
108109  1  0
109110  2  0
110111  1  0
111112  1  0
112113  1  0
113114  1  0
  6  1  1  0
 18 10  1  0
 27 22  2  0
 39 31  1  0
 48 43  2  0
 60 52  1  0
 75 67  1  0
 84 79  1  0
 96 88  1  0
111103  2  0
 63  2  1  0
 73 69  2  0
 94 90  2  0
109105  1  0
114  4  1  0
 16 12  2  0
 99 24  1  0
 37 33  2  0
 58 54  2  0
  1115  1  0
  3116  1  0
  5117  1  0
  7118  1  0
  7119  1  0
  8120  1  0
 11121  1  0
 13122  1  0
 13123  1  0
 14124  1  0
 14125  1  0
 15126  1  0
 17127  1  0
 20128  1  0
 21129  1  0
 21130  1  0
 23131  1  0
 25132  1  0
 27133  1  0
 28134  1  0
 28135  1  0
 29136  1  0
 32137  1  0
 34138  1  0
 35139  1  0
 35140  1  0
 36141  1  0
 36142  1  0
 38143  1  0
 41144  1  0
 42145  1  0
 42146  1  0
 44147  1  0
 46148  1  0
 48149  1  0
 49150  1  0
 49151  1  0
 50152  1  0
 53153  1  0
 55154  1  0
 56155  1  0
 56156  1  0
 57157  1  0
 57158  1  0
 59159  1  0
 62160  1  0
 63161  1  0
 63162  1  0
 64163  1  0
 64164  1  0
 65165  1  0
 68166  1  0
 70167  1  0
 70168  1  0
 71169  1  0
 71170  1  0
 72171  1  0
 74172  1  0
 77173  1  0
 78174  1  0
 78175  1  0
 80176  1  0
 82177  1  0
 84178  1  0
 85179  1  0
 85180  1  0
 86181  1  0
 89182  1  0
 91183  1  0
 92184  1  0
 92185  1  0
 93186  1  0
 93187  1  0
 95188  1  0
 98189  1  0
 99190  1  0
 99191  1  0
100192  1  0
100193  1  0
101194  1  0
104195  1  0
106196  1  0
107197  1  0
107198  1  0
108199  1  0
108200  1  0
110201  1  0
113202  1  0
114203  1  0
114204  1  0
M  END
