
     RDKit          3D

132138  0  0  0  0  0  0  0  0999 V2000
    5.5133   -2.3418   -2.0747 O   0  0  0  0  0  0  0  0  0  0  0  0
    4.7578   -1.0043   -1.9335 P   0  0  0  0  0  0  0  0  0  0  0  0
    5.9822    0.1133   -2.7145 C   0  0  0  0  0  0  0  0  0  0  0  0
    5.4019    1.7562   -2.8826 Cl  0  0  0  0  0  0  0  0  0  0  0  0
    4.6453   -0.8092   -0.2346 N   0  0  0  0  0  0  0  0  0  0  0  0
    5.0803    0.5113    0.1453 C   0  0  0  0  0  0  0  0  0  0  0  0
    5.3675    0.9000    1.5041 C   0  0  0  0  0  0  0  0  0  0  0  0
    5.6329    2.2307    1.9094 C   0  0  0  0  0  0  0  0  0  0  0  0
    4.4516    2.9269    2.2789 C   0  0  0  0  0  0  0  0  0  0  0  0
    4.4283    2.2953    3.5421 C   0  0  0  0  0  0  0  0  0  0  0  0
    4.0377    0.9319    3.5717 C   0  0  0  0  0  0  0  0  0  0  0  0
    5.0554    0.3486    2.7754 C   0  0  0  0  0  0  0  0  0  0  0  0
    2.6937    0.4577    3.8003 C   0  0  0  0  0  0  0  0  0  0  0  0
    2.0094    0.8331    5.0382 N   0  0  0  0  0  0  0  0  0  0  0  0
    0.3571    1.1032    5.0678 P   0  0  0  0  0  0  0  0  0  0  0  0
   -0.2660   -0.0556    5.8508 O   0  0  0  0  0  0  0  0  0  0  0  0
    0.0251    2.5440    6.1445 C   0  0  0  0  0  0  0  0  0  0  0  0
    0.8081    2.1773    7.7110 Cl  0  0  0  0  0  0  0  0  0  0  0  0
   -0.4198    1.1743    3.5846 N   0  0  0  0  0  0  0  0  0  0  0  0
   -1.7326    1.8222    3.4837 C   0  0  0  0  0  0  0  0  0  0  0  0
   -2.8780    0.9598    3.2678 C   0  0  0  0  0  0  0  0  0  0  0  0
   -3.1349    0.2857    2.0196 C   0  0  0  0  0  0  0  0  0  0  0  0
   -4.1505    0.9840    1.2748 C   0  0  0  0  0  0  0  0  0  0  0  0
   -5.2374    0.9819    2.1870 C   0  0  0  0  0  0  0  0  0  0  0  0
   -5.0863    0.1024    3.3166 C   0  0  0  0  0  0  0  0  0  0  0  0
   -4.1487    1.0196    3.9082 C   0  0  0  0  0  0  0  0  0  0  0  0
   -5.2030   -1.4165    3.4237 C   0  0  0  0  0  0  0  0  0  0  0  0
   -4.1535   -2.1043    4.0927 N   0  0  0  0  0  0  0  0  0  0  0  0
   -3.5618   -3.5595    3.4746 P   0  0  0  0  0  0  0  0  0  0  0  0
   -4.7245   -4.3305    2.8612 O   0  0  0  0  0  0  0  0  0  0  0  0
   -3.0105   -4.5756    4.8923 C   0  0  0  0  0  0  0  0  0  0  0  0
   -4.4621   -5.2949    5.6331 Cl  0  0  0  0  0  0  0  0  0  0  0  0
   -2.3000   -3.5220    2.3474 N   0  0  0  0  0  0  0  0  0  0  0  0
   -1.0223   -3.0573    2.7967 C   0  0  0  0  0  0  0  0  0  0  0  0
    0.1853   -3.3161    2.0390 C   0  0  0  0  0  0  0  0  0  0  0  0
    1.2469   -2.4278    1.7245 C   0  0  0  0  0  0  0  0  0  0  0  0
    1.0979   -1.7233    0.5040 C   0  0  0  0  0  0  0  0  0  0  0  0
    1.2438   -2.8473   -0.3460 C   0  0  0  0  0  0  0  0  0  0  0  0
    0.1064   -3.6957   -0.3304 C   0  0  0  0  0  0  0  0  0  0  0  0
    0.3864   -4.2130    0.9613 C   0  0  0  0  0  0  0  0  0  0  0  0
   -1.1571   -3.5984   -1.0548 C   0  0  0  0  0  0  0  0  0  0  0  0
   -1.2768   -4.5653   -2.1541 N   0  0  0  0  0  0  0  0  0  0  0  0
   -0.0970   -4.3470   -3.3905 P   0  0  0  0  0  0  0  0  0  0  0  0
    1.1884   -5.0248   -2.9399 O   0  0  0  0  0  0  0  0  0  0  0  0
   -0.6631   -5.2425   -4.8724 C   0  0  0  0  0  0  0  0  0  0  0  0
   -2.3335   -4.7763   -5.2660 Cl  0  0  0  0  0  0  0  0  0  0  0  0
    0.2155   -2.6936   -3.6738 N   0  0  0  0  0  0  0  0  0  0  0  0
   -0.2721   -2.2077   -4.9369 C   0  0  0  0  0  0  0  0  0  0  0  0
    0.2954   -1.0097   -5.5481 C   0  0  0  0  0  0  0  0  0  0  0  0
    1.6488   -0.5799   -5.5274 C   0  0  0  0  0  0  0  0  0  0  0  0
    2.0591    0.2571   -4.4548 C   0  0  0  0  0  0  0  0  0  0  0  0
    1.2031    1.3511   -4.7506 C   0  0  0  0  0  0  0  0  0  0  0  0
   -0.2006    1.1309   -4.6423 C   0  0  0  0  0  0  0  0  0  0  0  0
   -0.2860    0.2653   -5.7598 C   0  0  0  0  0  0  0  0  0  0  0  0
   -1.0490    1.2325   -3.4546 C   0  0  0  0  0  0  0  0  0  0  0  0
   -2.0622    0.2767   -3.1616 N   0  0  0  0  0  0  0  0  0  0  0  0
   -3.4466    0.9626   -2.3053 P   0  0  0  0  0  0  0  0  0  0  0  0
   -4.4556   -0.1702   -2.1862 O   0  0  0  0  0  0  0  0  0  0  0  0
   -4.1796    2.2403   -3.3731 C   0  0  0  0  0  0  0  0  0  0  0  0
   -3.9888    1.7622   -5.0807 Cl  0  0  0  0  0  0  0  0  0  0  0  0
   -2.9536    1.5564   -0.8439 N   0  0  0  0  0  0  0  0  0  0  0  0
   -3.8680    1.9290    0.2216 C   0  0  0  0  0  0  0  0  0  0  0  0
    2.4936   -0.1681   -3.1205 C   0  0  0  0  0  0  0  0  0  0  0  0
    3.4849   -1.1682   -2.9636 N   0  0  0  0  0  0  0  0  0  0  0  0
    0.4109   -0.4177    0.2771 C   0  0  0  0  0  0  0  0  0  0  0  0
    1.3431    0.6589    0.2269 N   0  0  0  0  0  0  0  0  0  0  0  0
    1.1973    2.2255    0.3197 P   0  0  0  0  0  0  0  0  0  0  0  0
   -0.1596    2.9195    0.3800 O   0  0  0  0  0  0  0  0  0  0  0  0
    1.8202    3.1085   -1.1691 C   0  0  0  0  0  0  0  0  0  0  0  0
    1.5756    4.8322   -0.9079 Cl  0  0  0  0  0  0  0  0  0  0  0  0
    2.0222    3.0278    1.6228 N   0  0  0  0  0  0  0  0  0  0  0  0
    3.3143    3.4808    1.4694 C   0  0  0  0  0  0  0  0  0  0  0  0
    6.1027   -0.2947   -3.7515 H   0  0  0  0  0  0  0  0  0  0  0  0
    6.9767    0.0157   -2.2493 H   0  0  0  0  0  0  0  0  0  0  0  0
    5.1571   -1.4838    0.3521 H   0  0  0  0  0  0  0  0  0  0  0  0
    5.9580    0.5229   -0.5658 H   0  0  0  0  0  0  0  0  0  0  0  0
    4.2807    1.0350   -0.4460 H   0  0  0  0  0  0  0  0  0  0  0  0
    6.5951    2.7698    1.7701 H   0  0  0  0  0  0  0  0  0  0  0  0
    4.6388    2.8745    4.4702 H   0  0  0  0  0  0  0  0  0  0  0  0
    5.7343   -0.4279    3.2018 H   0  0  0  0  0  0  0  0  0  0  0  0
    1.8957    0.5755    3.0764 H   0  0  0  0  0  0  0  0  0  0  0  0
    2.5452   -0.6372    4.0315 H   0  0  0  0  0  0  0  0  0  0  0  0
    2.4793    0.4844    5.8842 H   0  0  0  0  0  0  0  0  0  0  0  0
   -1.0561    2.5649    6.3479 H   0  0  0  0  0  0  0  0  0  0  0  0
    0.4379    3.4728    5.7329 H   0  0  0  0  0  0  0  0  0  0  0  0
   -0.4261    0.2004    3.2389 H   0  0  0  0  0  0  0  0  0  0  0  0
   -1.5654    2.6732    2.7626 H   0  0  0  0  0  0  0  0  0  0  0  0
   -1.5635    2.4334    4.3790 H   0  0  0  0  0  0  0  0  0  0  0  0
   -2.7700   -0.7173    1.7337 H   0  0  0  0  0  0  0  0  0  0  0  0
   -6.2754    1.3201    1.9741 H   0  0  0  0  0  0  0  0  0  0  0  0
   -4.3738    1.3949    4.9272 H   0  0  0  0  0  0  0  0  0  0  0  0
   -6.1303   -1.7192    3.9794 H   0  0  0  0  0  0  0  0  0  0  0  0
   -5.2533   -1.9885    2.4974 H   0  0  0  0  0  0  0  0  0  0  0  0
   -3.4764   -1.5035    4.5948 H   0  0  0  0  0  0  0  0  0  0  0  0
   -2.4599   -3.9398    5.6290 H   0  0  0  0  0  0  0  0  0  0  0  0
   -2.4022   -5.4018    4.4957 H   0  0  0  0  0  0  0  0  0  0  0  0
   -2.2745   -4.3896    1.7809 H   0  0  0  0  0  0  0  0  0  0  0  0
   -1.3201   -2.0117    3.0672 H   0  0  0  0  0  0  0  0  0  0  0  0
   -0.9791   -3.5092    3.8284 H   0  0  0  0  0  0  0  0  0  0  0  0
    2.1104   -2.2755    2.4041 H   0  0  0  0  0  0  0  0  0  0  0  0
    2.0650   -2.9549   -1.0818 H   0  0  0  0  0  0  0  0  0  0  0  0
    0.6504   -5.2814    1.1176 H   0  0  0  0  0  0  0  0  0  0  0  0
   -2.1243   -3.7786   -0.5491 H   0  0  0  0  0  0  0  0  0  0  0  0
   -1.4500   -2.6423   -1.5595 H   0  0  0  0  0  0  0  0  0  0  0  0
   -1.3900   -5.5342   -1.8132 H   0  0  0  0  0  0  0  0  0  0  0  0
   -0.6697   -6.3338   -4.6222 H   0  0  0  0  0  0  0  0  0  0  0  0
    0.0276   -5.1330   -5.7203 H   0  0  0  0  0  0  0  0  0  0  0  0
   -0.1085   -2.0238   -2.9590 H   0  0  0  0  0  0  0  0  0  0  0  0
   -1.3656   -2.2399   -4.6913 H   0  0  0  0  0  0  0  0  0  0  0  0
   -0.2462   -3.1168   -5.5994 H   0  0  0  0  0  0  0  0  0  0  0  0
    2.3762   -0.8920   -6.3103 H   0  0  0  0  0  0  0  0  0  0  0  0
    1.6092    2.3596   -4.9895 H   0  0  0  0  0  0  0  0  0  0  0  0
   -0.8723    0.5130   -6.6677 H   0  0  0  0  0  0  0  0  0  0  0  0
   -0.5838    1.2672   -2.4362 H   0  0  0  0  0  0  0  0  0  0  0  0
   -1.6364    2.1920   -3.4555 H   0  0  0  0  0  0  0  0  0  0  0  0
   -2.4583   -0.1276   -4.0428 H   0  0  0  0  0  0  0  0  0  0  0  0
   -3.6390    3.1895   -3.1595 H   0  0  0  0  0  0  0  0  0  0  0  0
   -5.2403    2.3310   -3.0837 H   0  0  0  0  0  0  0  0  0  0  0  0
   -2.1042    1.0863   -0.5261 H   0  0  0  0  0  0  0  0  0  0  0  0
   -3.4222    2.9284    0.4899 H   0  0  0  0  0  0  0  0  0  0  0  0
   -4.6398    2.2188   -0.5357 H   0  0  0  0  0  0  0  0  0  0  0  0
    3.0106    0.5967   -2.4811 H   0  0  0  0  0  0  0  0  0  0  0  0
    1.7191   -0.5497   -2.4210 H   0  0  0  0  0  0  0  0  0  0  0  0
    3.3519   -2.0139   -3.5402 H   0  0  0  0  0  0  0  0  0  0  0  0
   -0.4089   -0.1190    0.9140 H   0  0  0  0  0  0  0  0  0  0  0  0
   -0.1331   -0.2882   -0.6966 H   0  0  0  0  0  0  0  0  0  0  0  0
    2.1450    0.3004    0.7711 H   0  0  0  0  0  0  0  0  0  0  0  0
    1.1631    2.8381   -2.0049 H   0  0  0  0  0  0  0  0  0  0  0  0
    2.8313    2.8110   -1.4395 H   0  0  0  0  0  0  0  0  0  0  0  0
    1.4393    3.3395    2.4014 H   0  0  0  0  0  0  0  0  0  0  0  0
    3.4423    3.4552    0.3648 H   0  0  0  0  0  0  0  0  0  0  0  0
    3.2705    4.5965    1.6145 H   0  0  0  0  0  0  0  0  0  0  0  0
  1  2  2  0
  2  3  1  0
  3  4  1  0
  2  5  1  0
  5  6  1  0
  6  7  1  0
  7  8  2  0
  8  9  1  0
  9 10  2  0
 10 11  1  0
 11 12  2  0
 11 13  1  0
 13 14  1  0
 14 15  1  0
 15 16  2  0
 15 17  1  0
 17 18  1  0
 15 19  1  0
 19 20  1  0
 20 21  1  0
 21 22  2  0
 22 23  1  0
 23 24  2  0
 24 25  1  0
 25 26  2  0
 25 27  1  0
 27 28  1  0
 28 29  1  0
 29 30  2  0
 29 31  1  0
 31 32  1  0
 29 33  1  0
 33 34  1  0
 34 35  1  0
 35 36  1  0
 36 37  2  0
 37 38  1  0
 38 39  2  0
 39 40  1  0
 39 41  1  0
 41 42  1  0
 42 43  1  0
 43 44  2  0
 43 45  1  0
 45 46  1  0
 43 47  1  0
 47 48  1  0
 48 49  1  0
 49 50  1  0
 50 51  2  0
 51 52  1  0
 52 53  2  0
 53 54  1  0
 53 55  1  0
 55 56  1  0
 56 57  1  0
 57 58  2  0
 57 59  1  0
 59 60  1  0
 57 61  1  0
 61 62  1  0
 51 63  1  0
 63 64  1  0
 37 65  1  0
 65 66  1  0
 66 67  1  0
 67 68  2  0
 67 69  1  0
 69 70  1  0
 67 71  1  0
 71 72  1  0
 64  2  1  0
 12  7  1  0
 26 21  1  0
 40 35  2  0
 54 49  2  0
 72  9  1  0
 62 23  1  0
  3 73  1  0
  3 74  1  0
  5 75  1  0
  6 76  1  0
  6 77  1  0
  8 78  1  0
 10 79  1  0
 12 80  1  0
 13 81  1  0
 13 82  1  0
 14 83  1  0
 17 84  1  0
 17 85  1  0
 19 86  1  0
 20 87  1  0
 20 88  1  0
 22 89  1  0
 24 90  1  0
 26 91  1  0
 27 92  1  0
 27 93  1  0
 28 94  1  0
 31 95  1  0
 31 96  1  0
 33 97  1  0
 34 98  1  0
 34 99  1  0
 36100  1  0
 38101  1  0
 40102  1  0
 41103  1  0
 41104  1  0
 42105  1  0
 45106  1  0
 45107  1  0
 47108  1  0
 48109  1  0
 48110  1  0
 50111  1  0
 52112  1  0
 54113  1  0
 55114  1  0
 55115  1  0
 56116  1  0
 59117  1  0
 59118  1  0
 61119  1  0
 62120  1  0
 62121  1  0
 63122  1  0
 63123  1  0
 64124  1  0
 65125  1  0
 65126  1  0
 66127  1  0
 69128  1  0
 69129  1  0
 71130  1  0
 72131  1  0
 72132  1  0
M  END
