
     RDKit          3D

234252  0  0  0  0  0  0  0  0999 V2000
   -2.3517   -0.7835    0.9894 C   0  0  0  0  0  0  0  0  0  0  0  0
   -3.6452   -0.1635    1.1172 C   0  0  0  0  0  0  0  0  0  0  0  0
   -3.6319    0.2618    2.4850 C   0  0  0  0  0  0  0  0  0  0  0  0
   -2.5048   -0.1962    3.2624 C   0  0  0  0  0  0  0  0  0  0  0  0
   -1.6000    0.6524    2.5293 C   0  0  0  0  0  0  0  0  0  0  0  0
   -1.3606    0.2451    1.1809 C   0  0  0  0  0  0  0  0  0  0  0  0
   -0.6725    1.0058    0.1265 C   0  0  0  0  0  0  0  0  0  0  0  0
    0.7728    0.7844    0.0312 N   0  0  0  0  0  0  0  0  0  0  0  0
    2.1693    0.9236    0.1474 C   0  0  0  0  0  0  0  0  0  0  0  0
    1.9482    0.1204   -0.9562 C   0  0  0  0  0  0  0  0  0  0  0  0
    2.8020    0.3347   -2.0325 C   0  0  0  0  0  0  0  0  0  0  0  0
    3.8401    1.1971   -1.9052 N   0  0  0  0  0  0  0  0  0  0  0  0
    4.0195    1.8283   -0.7194 C   0  0  0  0  0  0  0  0  0  0  0  0
    3.4821    1.2018    0.3559 N   0  0  0  0  0  0  0  0  0  0  0  0
    4.5010    2.6578   -1.7858 N   0  0  0  0  0  0  0  0  0  0  0  0
    4.9188    3.7897   -2.6298 C   0  0  0  0  0  0  0  0  0  0  0  0
    3.8669    4.3950   -3.4561 C   0  0  0  0  0  0  0  0  0  0  0  0
    2.6481    4.9478   -2.9250 C   0  0  0  0  0  0  0  0  0  0  0  0
    2.8064    6.3680   -2.7203 C   0  0  0  0  0  0  0  0  0  0  0  0
    3.1007    6.8585   -4.0258 C   0  0  0  0  0  0  0  0  0  0  0  0
    2.9059    5.8998   -5.0829 C   0  0  0  0  0  0  0  0  0  0  0  0
    4.0364    5.1021   -4.6820 C   0  0  0  0  0  0  0  0  0  0  0  0
    1.6388    5.5187   -5.8381 C   0  0  0  0  0  0  0  0  0  0  0  0
    1.3542    4.1460   -6.0313 N   0  0  0  0  0  0  0  0  0  0  0  0
    1.4327    2.8713   -6.6584 C   0  0  0  0  0  0  0  0  0  0  0  0
    1.7653    1.8082   -7.4352 N   0  0  0  0  0  0  0  0  0  0  0  0
    0.7316    0.9557   -7.5483 C   0  0  0  0  0  0  0  0  0  0  0  0
   -0.5816    1.3821   -7.7087 C   0  0  0  0  0  0  0  0  0  0  0  0
   -0.7891    2.7398   -7.4885 C   0  0  0  0  0  0  0  0  0  0  0  0
    0.1543    3.3264   -6.7088 N   0  0  0  0  0  0  0  0  0  0  0  0
   -2.1223    3.2352   -7.3057 N   0  0  0  0  0  0  0  0  0  0  0  0
   -2.6646    3.2400   -5.9490 C   0  0  0  0  0  0  0  0  0  0  0  0
   -2.7219    4.6814   -5.4571 C   0  0  0  0  0  0  0  0  0  0  0  0
   -3.7319    5.4983   -6.2278 C   0  0  0  0  0  0  0  0  0  0  0  0
   -3.7541    5.0434   -7.6594 C   0  0  0  0  0  0  0  0  0  0  0  0
   -2.4569    4.4126   -8.1030 C   0  0  0  0  0  0  0  0  0  0  0  0
   -0.1171   -0.0927   -7.0599 N   0  0  0  0  0  0  0  0  0  0  0  0
   -0.7702   -1.1758   -6.3021 C   0  0  0  0  0  0  0  0  0  0  0  0
   -1.3401   -0.7021   -5.0256 C   0  0  0  0  0  0  0  0  0  0  0  0
   -0.7763   -0.7433   -3.7204 C   0  0  0  0  0  0  0  0  0  0  0  0
   -1.0320   -1.9378   -2.9853 C   0  0  0  0  0  0  0  0  0  0  0  0
   -2.4278   -1.7150   -2.8104 C   0  0  0  0  0  0  0  0  0  0  0  0
   -3.2087   -1.7575   -3.9980 C   0  0  0  0  0  0  0  0  0  0  0  0
   -2.6899   -0.5815   -4.6005 C   0  0  0  0  0  0  0  0  0  0  0  0
   -3.9355   -2.9087   -4.5606 C   0  0  0  0  0  0  0  0  0  0  0  0
   -5.2898   -3.0799   -3.9735 N   0  0  0  0  0  0  0  0  0  0  0  0
   -6.3544   -2.6635   -3.0833 C   0  0  0  0  0  0  0  0  0  0  0  0
   -7.1257   -1.8825   -2.2661 N   0  0  0  0  0  0  0  0  0  0  0  0
   -6.5065   -1.3964   -1.1492 C   0  0  0  0  0  0  0  0  0  0  0  0
   -5.7444   -2.3188   -0.4845 C   0  0  0  0  0  0  0  0  0  0  0  0
   -5.6087   -3.5741   -1.0508 C   0  0  0  0  0  0  0  0  0  0  0  0
   -5.6195   -3.5857   -2.4110 N   0  0  0  0  0  0  0  0  0  0  0  0
   -5.0702   -4.6001   -0.2578 N   0  0  0  0  0  0  0  0  0  0  0  0
   -4.3176   -5.6923   -0.8284 C   0  0  0  0  0  0  0  0  0  0  0  0
   -4.9477   -7.0353   -0.5824 C   0  0  0  0  0  0  0  0  0  0  0  0
   -6.3364   -6.9353   -0.0156 C   0  0  0  0  0  0  0  0  0  0  0  0
   -6.2925   -6.1207    1.2457 C   0  0  0  0  0  0  0  0  0  0  0  0
   -5.6435   -4.7774    1.0714 C   0  0  0  0  0  0  0  0  0  0  0  0
   -5.5325   -0.6461   -0.4083 N   0  0  0  0  0  0  0  0  0  0  0  0
   -4.4825    0.2855    0.0190 C   0  0  0  0  0  0  0  0  0  0  0  0
   -0.2871   -3.2054   -2.9543 C   0  0  0  0  0  0  0  0  0  0  0  0
    0.4329   -3.4232   -1.6944 N   0  0  0  0  0  0  0  0  0  0  0  0
    1.3763   -3.7143   -0.7014 C   0  0  0  0  0  0  0  0  0  0  0  0
    0.1598   -4.1699   -0.2325 C   0  0  0  0  0  0  0  0  0  0  0  0
    0.0791   -4.4226    1.1247 C   0  0  0  0  0  0  0  0  0  0  0  0
    1.0962   -3.9433    1.8822 N   0  0  0  0  0  0  0  0  0  0  0  0
    2.1378   -3.3011    1.2937 C   0  0  0  0  0  0  0  0  0  0  0  0
    2.4856   -3.7837    0.0758 N   0  0  0  0  0  0  0  0  0  0  0  0
    2.0128   -2.7780    2.5858 N   0  0  0  0  0  0  0  0  0  0  0  0
    2.0770   -2.2162    3.9380 C   0  0  0  0  0  0  0  0  0  0  0  0
    2.7595   -0.9168    4.0977 C   0  0  0  0  0  0  0  0  0  0  0  0
    3.8754   -0.6117    4.9519 C   0  0  0  0  0  0  0  0  0  0  0  0
    3.3311   -0.1308    6.1940 C   0  0  0  0  0  0  0  0  0  0  0  0
    2.6144    1.0507    5.8420 C   0  0  0  0  0  0  0  0  0  0  0  0
    2.8647    1.4802    4.4903 C   0  0  0  0  0  0  0  0  0  0  0  0
    2.1548    0.3673    3.9219 C   0  0  0  0  0  0  0  0  0  0  0  0
    3.9656    2.3368    3.8889 C   0  0  0  0  0  0  0  0  0  0  0  0
    3.4737    3.5094    3.1907 N   0  0  0  0  0  0  0  0  0  0  0  0
    2.4334    4.1474    2.4351 C   0  0  0  0  0  0  0  0  0  0  0  0
    1.6092    4.4993    1.4175 N   0  0  0  0  0  0  0  0  0  0  0  0
    2.1194    5.5062    0.7054 C   0  0  0  0  0  0  0  0  0  0  0  0
    2.8082    6.5146    1.3700 C   0  0  0  0  0  0  0  0  0  0  0  0
    3.1231    6.3130    2.7092 C   0  0  0  0  0  0  0  0  0  0  0  0
    3.0552    5.0622    3.2184 N   0  0  0  0  0  0  0  0  0  0  0  0
    3.1447    7.4841    3.5174 N   0  0  0  0  0  0  0  0  0  0  0  0
    2.1084    7.5944    4.5427 C   0  0  0  0  0  0  0  0  0  0  0  0
    0.8602    8.1430    3.8618 C   0  0  0  0  0  0  0  0  0  0  0  0
    1.2576    9.3265    3.0247 C   0  0  0  0  0  0  0  0  0  0  0  0
    2.6659    9.8057    3.3216 C   0  0  0  0  0  0  0  0  0  0  0  0
    3.6990    8.7299    3.0622 C   0  0  0  0  0  0  0  0  0  0  0  0
    2.7010    6.3937   -0.2239 N   0  0  0  0  0  0  0  0  0  0  0  0
    3.2050    7.0146   -1.4553 C   0  0  0  0  0  0  0  0  0  0  0  0
    3.0957   -0.9339    7.4119 C   0  0  0  0  0  0  0  0  0  0  0  0
    1.7394   -1.3672    7.7408 N   0  0  0  0  0  0  0  0  0  0  0  0
    0.3410   -1.0534    7.8351 C   0  0  0  0  0  0  0  0  0  0  0  0
   -0.8872   -0.4879    7.6907 N   0  0  0  0  0  0  0  0  0  0  0  0
   -1.6936   -1.0341    6.7450 C   0  0  0  0  0  0  0  0  0  0  0  0
   -1.5796   -2.4138    6.6104 C   0  0  0  0  0  0  0  0  0  0  0  0
   -0.5980   -3.0694    7.3482 C   0  0  0  0  0  0  0  0  0  0  0  0
    0.5443   -2.3652    7.5465 N   0  0  0  0  0  0  0  0  0  0  0  0
   -0.7090   -4.4601    7.5467 N   0  0  0  0  0  0  0  0  0  0  0  0
   -0.9401   -5.4213    6.4830 C   0  0  0  0  0  0  0  0  0  0  0  0
    0.3982   -5.7779    5.9041 C   0  0  0  0  0  0  0  0  0  0  0  0
    1.5172   -5.7468    6.9044 C   0  0  0  0  0  0  0  0  0  0  0  0
    1.0619   -5.9374    8.3235 C   0  0  0  0  0  0  0  0  0  0  0  0
   -0.0470   -5.0083    8.7290 C   0  0  0  0  0  0  0  0  0  0  0  0
   -2.1536   -1.3674    5.4259 N   0  0  0  0  0  0  0  0  0  0  0  0
   -2.2548   -1.5165    3.9744 C   0  0  0  0  0  0  0  0  0  0  0  0
   -0.8428   -5.3927    1.5590 N   0  0  0  0  0  0  0  0  0  0  0  0
   -0.7239   -6.7764    1.1107 C   0  0  0  0  0  0  0  0  0  0  0  0
   -0.4905   -7.6049    2.3525 C   0  0  0  0  0  0  0  0  0  0  0  0
   -1.7345   -7.5860    3.1938 C   0  0  0  0  0  0  0  0  0  0  0  0
   -2.5415   -6.3313    3.0555 C   0  0  0  0  0  0  0  0  0  0  0  0
   -1.7565   -5.1312    2.6345 C   0  0  0  0  0  0  0  0  0  0  0  0
    2.9153   -0.6704   -3.0372 N   0  0  0  0  0  0  0  0  0  0  0  0
    2.9116   -0.1713   -4.4093 C   0  0  0  0  0  0  0  0  0  0  0  0
    4.2690   -0.0141   -5.0015 C   0  0  0  0  0  0  0  0  0  0  0  0
    5.1691   -1.2092   -4.7828 C   0  0  0  0  0  0  0  0  0  0  0  0
    5.2798   -1.3425   -3.2687 C   0  0  0  0  0  0  0  0  0  0  0  0
    3.9140   -1.7008   -2.7613 C   0  0  0  0  0  0  0  0  0  0  0  0
   -2.1444   -1.8436    0.7788 H   0  0  0  0  0  0  0  0  0  0  0  0
   -4.5139    0.6317    3.0470 H   0  0  0  0  0  0  0  0  0  0  0  0
   -0.9584    1.3391    3.1228 H   0  0  0  0  0  0  0  0  0  0  0  0
   -0.9360    0.7844   -0.9464 H   0  0  0  0  0  0  0  0  0  0  0  0
   -0.9231    2.0922   -0.0269 H   0  0  0  0  0  0  0  0  0  0  0  0
    0.7873    0.0296   -0.6656 H   0  0  0  0  0  0  0  0  0  0  0  0
    0.9436   -0.1376   -1.1999 H   0  0  0  0  0  0  0  0  0  0  0  0
    4.3562    1.9717   -2.5710 H   0  0  0  0  0  0  0  0  0  0  0  0
    5.4742    4.4414   -1.9031 H   0  0  0  0  0  0  0  0  0  0  0  0
    5.7408    3.2087   -3.0602 H   0  0  0  0  0  0  0  0  0  0  0  0
    1.6970    4.4033   -2.8086 H   0  0  0  0  0  0  0  0  0  0  0  0
    3.2334    7.9217   -4.3258 H   0  0  0  0  0  0  0  0  0  0  0  0
    4.8041    4.8993   -5.4590 H   0  0  0  0  0  0  0  0  0  0  0  0
    0.6835    5.8833   -5.3822 H   0  0  0  0  0  0  0  0  0  0  0  0
    1.5926    6.0280   -6.8404 H   0  0  0  0  0  0  0  0  0  0  0  0
    0.3625    4.0801   -5.7947 H   0  0  0  0  0  0  0  0  0  0  0  0
   -1.3923    0.6522   -7.6702 H   0  0  0  0  0  0  0  0  0  0  0  0
   -3.6864    2.8350   -5.9031 H   0  0  0  0  0  0  0  0  0  0  0  0
   -1.9713    2.7162   -5.2440 H   0  0  0  0  0  0  0  0  0  0  0  0
   -1.7441    5.1986   -5.5857 H   0  0  0  0  0  0  0  0  0  0  0  0
   -2.9160    4.6924   -4.3588 H   0  0  0  0  0  0  0  0  0  0  0  0
   -4.7028    5.3975   -5.7116 H   0  0  0  0  0  0  0  0  0  0  0  0
   -3.4470    6.5762   -6.1258 H   0  0  0  0  0  0  0  0  0  0  0  0
   -4.5469    4.2834   -7.7549 H   0  0  0  0  0  0  0  0  0  0  0  0
   -3.9136    5.9317   -8.2889 H   0  0  0  0  0  0  0  0  0  0  0  0
   -1.6328    5.1475   -7.9268 H   0  0  0  0  0  0  0  0  0  0  0  0
   -2.5413    4.1827   -9.1742 H   0  0  0  0  0  0  0  0  0  0  0  0
   -0.9822    0.2640   -7.5441 H   0  0  0  0  0  0  0  0  0  0  0  0
    0.0029   -1.9859   -6.2930 H   0  0  0  0  0  0  0  0  0  0  0  0
   -1.4284   -1.6258   -7.0625 H   0  0  0  0  0  0  0  0  0  0  0  0
   -0.0742    0.0317   -3.3468 H   0  0  0  0  0  0  0  0  0  0  0  0
   -2.8785   -1.6086   -1.8037 H   0  0  0  0  0  0  0  0  0  0  0  0
   -3.3222    0.2945   -4.8449 H   0  0  0  0  0  0  0  0  0  0  0  0
   -3.4801   -3.9300   -4.4813 H   0  0  0  0  0  0  0  0  0  0  0  0
   -4.1650   -2.9428   -5.6325 H   0  0  0  0  0  0  0  0  0  0  0  0
   -5.0843   -3.9236   -3.4147 H   0  0  0  0  0  0  0  0  0  0  0  0
   -5.2270   -1.9658    0.3742 H   0  0  0  0  0  0  0  0  0  0  0  0
   -4.2017   -5.5945   -1.9360 H   0  0  0  0  0  0  0  0  0  0  0  0
   -3.2776   -5.6537   -0.4262 H   0  0  0  0  0  0  0  0  0  0  0  0
   -4.3337   -7.6062    0.1388 H   0  0  0  0  0  0  0  0  0  0  0  0
   -5.0294   -7.6508   -1.5140 H   0  0  0  0  0  0  0  0  0  0  0  0
   -7.0758   -6.5121   -0.7107 H   0  0  0  0  0  0  0  0  0  0  0  0
   -6.6617   -7.9604    0.2627 H   0  0  0  0  0  0  0  0  0  0  0  0
   -7.3468   -6.0461    1.6150 H   0  0  0  0  0  0  0  0  0  0  0  0
   -5.7573   -6.7092    2.0293 H   0  0  0  0  0  0  0  0  0  0  0  0
   -6.4276   -4.0146    1.2937 H   0  0  0  0  0  0  0  0  0  0  0  0
   -4.8299   -4.5810    1.7990 H   0  0  0  0  0  0  0  0  0  0  0  0
   -5.2408   -1.4634    0.1884 H   0  0  0  0  0  0  0  0  0  0  0  0
   -5.0343    1.2604    0.0311 H   0  0  0  0  0  0  0  0  0  0  0  0
   -3.9951    0.5696   -0.9631 H   0  0  0  0  0  0  0  0  0  0  0  0
   -0.8370   -4.1735   -3.0889 H   0  0  0  0  0  0  0  0  0  0  0  0
    0.4738   -3.4136   -3.7515 H   0  0  0  0  0  0  0  0  0  0  0  0
   -0.4108   -3.8638   -1.2411 H   0  0  0  0  0  0  0  0  0  0  0  0
   -0.6815   -4.2410   -0.8914 H   0  0  0  0  0  0  0  0  0  0  0  0
    1.2717   -3.4570    2.9047 H   0  0  0  0  0  0  0  0  0  0  0  0
    1.1263   -2.4038    4.5076 H   0  0  0  0  0  0  0  0  0  0  0  0
    2.5724   -3.1108    4.4179 H   0  0  0  0  0  0  0  0  0  0  0  0
    4.9374   -0.7004    4.6889 H   0  0  0  0  0  0  0  0  0  0  0  0
    2.1772    1.8027    6.5312 H   0  0  0  0  0  0  0  0  0  0  0  0
    1.3633    0.5962    3.1762 H   0  0  0  0  0  0  0  0  0  0  0  0
    4.7305    2.7204    4.5600 H   0  0  0  0  0  0  0  0  0  0  0  0
    4.6504    1.8294    3.1626 H   0  0  0  0  0  0  0  0  0  0  0  0
    3.5477    4.2192    3.9229 H   0  0  0  0  0  0  0  0  0  0  0  0
    3.2086    7.3423    0.8012 H   0  0  0  0  0  0  0  0  0  0  0  0
    2.4029    8.2561    5.3694 H   0  0  0  0  0  0  0  0  0  0  0  0
    1.8441    6.5874    4.9032 H   0  0  0  0  0  0  0  0  0  0  0  0
    0.4242    7.3340    3.2248 H   0  0  0  0  0  0  0  0  0  0  0  0
    0.0823    8.3960    4.6229 H   0  0  0  0  0  0  0  0  0  0  0  0
    0.5838   10.1688    3.3237 H   0  0  0  0  0  0  0  0  0  0  0  0
    1.0781    9.1752    1.9435 H   0  0  0  0  0  0  0  0  0  0  0  0
    2.6784   10.0563    4.4117 H   0  0  0  0  0  0  0  0  0  0  0  0
    2.8231   10.7133    2.7175 H   0  0  0  0  0  0  0  0  0  0  0  0
    4.0669    8.7175    2.0293 H   0  0  0  0  0  0  0  0  0  0  0  0
    4.5616    8.9608    3.7337 H   0  0  0  0  0  0  0  0  0  0  0  0
    3.1869    7.0436    0.3966 H   0  0  0  0  0  0  0  0  0  0  0  0
    4.2921    7.0146   -1.1756 H   0  0  0  0  0  0  0  0  0  0  0  0
    2.7191    7.9958   -1.2000 H   0  0  0  0  0  0  0  0  0  0  0  0
    3.5263   -1.9730    7.4468 H   0  0  0  0  0  0  0  0  0  0  0  0
    3.6583   -0.5974    8.3283 H   0  0  0  0  0  0  0  0  0  0  0  0
    1.6721   -2.2068    7.1546 H   0  0  0  0  0  0  0  0  0  0  0  0
   -2.1245   -2.9187    5.8101 H   0  0  0  0  0  0  0  0  0  0  0  0
   -1.4123   -6.3304    6.9242 H   0  0  0  0  0  0  0  0  0  0  0  0
   -1.6318   -4.9499    5.7740 H   0  0  0  0  0  0  0  0  0  0  0  0
    0.6850   -5.0981    5.0712 H   0  0  0  0  0  0  0  0  0  0  0  0
    0.3057   -6.7894    5.4593 H   0  0  0  0  0  0  0  0  0  0  0  0
    2.1979   -6.6042    6.6694 H   0  0  0  0  0  0  0  0  0  0  0  0
    2.1521   -4.8375    6.7744 H   0  0  0  0  0  0  0  0  0  0  0  0
    1.9557   -5.7499    8.9709 H   0  0  0  0  0  0  0  0  0  0  0  0
    0.8178   -7.0054    8.4566 H   0  0  0  0  0  0  0  0  0  0  0  0
    0.3485   -4.2272    9.3932 H   0  0  0  0  0  0  0  0  0  0  0  0
   -0.7713   -5.6114    9.3254 H   0  0  0  0  0  0  0  0  0  0  0  0
   -2.1869   -2.3899    5.5767 H   0  0  0  0  0  0  0  0  0  0  0  0
   -2.9940   -2.3101    3.8361 H   0  0  0  0  0  0  0  0  0  0  0  0
   -1.3591   -2.0920    3.6777 H   0  0  0  0  0  0  0  0  0  0  0  0
   -1.6480   -7.1228    0.6264 H   0  0  0  0  0  0  0  0  0  0  0  0
    0.1256   -6.9221    0.4189 H   0  0  0  0  0  0  0  0  0  0  0  0
    0.3447   -7.2000    2.9673 H   0  0  0  0  0  0  0  0  0  0  0  0
   -0.2674   -8.6392    2.0363 H   0  0  0  0  0  0  0  0  0  0  0  0
   -2.3569   -8.4579    2.8680 H   0  0  0  0  0  0  0  0  0  0  0  0
   -1.5271   -7.7809    4.2766 H   0  0  0  0  0  0  0  0  0  0  0  0
   -3.3352   -6.5052    2.3163 H   0  0  0  0  0  0  0  0  0  0  0  0
   -3.0092   -6.0971    4.0450 H   0  0  0  0  0  0  0  0  0  0  0  0
   -1.1941   -4.6402    3.4405 H   0  0  0  0  0  0  0  0  0  0  0  0
   -2.4872   -4.3701    2.2611 H   0  0  0  0  0  0  0  0  0  0  0  0
    2.3638   -0.9371   -5.0142 H   0  0  0  0  0  0  0  0  0  0  0  0
    2.3880    0.7972   -4.4965 H   0  0  0  0  0  0  0  0  0  0  0  0
    4.7893    0.9204   -4.7058 H   0  0  0  0  0  0  0  0  0  0  0  0
    4.1327    0.0626   -6.1100 H   0  0  0  0  0  0  0  0  0  0  0  0
    6.1616   -0.9612   -5.2103 H   0  0  0  0  0  0  0  0  0  0  0  0
    4.7160   -2.1098   -5.2252 H   0  0  0  0  0  0  0  0  0  0  0  0
    5.6496   -0.3913   -2.8615 H   0  0  0  0  0  0  0  0  0  0  0  0
    5.9335   -2.2065   -3.0850 H   0  0  0  0  0  0  0  0  0  0  0  0
    3.6333   -2.6757   -3.2154 H   0  0  0  0  0  0  0  0  0  0  0  0
    4.0290   -1.8414   -1.6563 H   0  0  0  0  0  0  0  0  0  0  0  0
  1  2  2  0
  2  3  1  0
  3  4  2  0
  4  5  1  0
  5  6  2  0
  6  7  1  0
  7  8  1  0
  8  9  1  0
  9 10  2  0
 10 11  1  0
 11 12  2  0
 12 13  1  0
 13 14  2  0
 13 15  1  0
 15 16  1  0
 16 17  1  0
 17 18  1  0
 18 19  2  0
 19 20  1  0
 20 21  2  0
 21 22  1  0
 21 23  1  0
 23 24  1  0
 24 25  1  0
 25 26  2  0
 26 27  1  0
 27 28  2  0
 28 29  1  0
 29 30  2  0
 29 31  1  0
 31 32  1  0
 32 33  1  0
 33 34  1  0
 34 35  1  0
 35 36  1  0
 27 37  1  0
 37 38  1  0
 38 39  1  0
 39 40  1  0
 40 41  2  0
 41 42  1  0
 42 43  2  0
 43 44  1  0
 43 45  1  0
 45 46  1  0
 46 47  1  0
 47 48  2  0
 48 49  1  0
 49 50  2  0
 50 51  1  0
 51 52  2  0
 51 53  1  0
 53 54  1  0
 54 55  1  0
 55 56  1  0
 56 57  1  0
 57 58  1  0
 49 59  1  0
 59 60  1  0
 41 61  1  0
 61 62  1  0
 62 63  1  0
 63 64  1  0
 64 65  2  0
 65 66  1  0
 66 67  2  0
 67 68  1  0
 67 69  1  0
 69 70  1  0
 70 71  1  0
 71 72  1  0
 72 73  2  0
 73 74  1  0
 74 75  2  0
 75 76  1  0
 75 77  1  0
 77 78  1  0
 78 79  1  0
 79 80  2  0
 80 81  1  0
 81 82  2  0
 82 83  1  0
 83 84  2  0
 83 85  1  0
 85 86  1  0
 86 87  1  0
 87 88  1  0
 88 89  1  0
 89 90  1  0
 81 91  1  0
 91 92  1  0
 73 93  1  0
 93 94  1  0
 94 95  1  0
 95 96  2  0
 96 97  1  0
 97 98  2  0
 98 99  1  0
 99100  2  0
 99101  1  0
101102  1  0
102103  1  0
103104  1  0
104105  1  0
105106  1  0
 97107  1  0
107108  1  0
 65109  1  0
109110  1  0
110111  1  0
111112  1  0
112113  1  0
113114  1  0
 11115  1  0
115116  1  0
116117  1  0
117118  1  0
118119  1  0
119120  1  0
  6  1  1  0
 14  9  1  0
 22 17  2  0
 30 25  1  0
 36 31  1  0
 44 39  2  0
 52 47  1  0
 58 53  1  0
 68 63  2  0
 76 71  2  0
 84 79  1  0
 90 85  1  0
100 95  1  0
106101  1  0
114109  1  0
120115  1  0
 60  2  1  0
108  4  1  0
 92 19  1  0
  1121  1  0
  3122  1  0
  5123  1  0
  7124  1  0
  7125  1  0
  8126  1  0
 10127  1  0
 15128  1  0
 16129  1  0
 16130  1  0
 18131  1  0
 20132  1  0
 22133  1  0
 23134  1  0
 23135  1  0
 24136  1  0
 28137  1  0
 32138  1  0
 32139  1  0
 33140  1  0
 33141  1  0
 34142  1  0
 34143  1  0
 35144  1  0
 35145  1  0
 36146  1  0
 36147  1  0
 37148  1  0
 38149  1  0
 38150  1  0
 40151  1  0
 42152  1  0
 44153  1  0
 45154  1  0
 45155  1  0
 46156  1  0
 50157  1  0
 54158  1  0
 54159  1  0
 55160  1  0
 55161  1  0
 56162  1  0
 56163  1  0
 57164  1  0
 57165  1  0
 58166  1  0
 58167  1  0
 59168  1  0
 60169  1  0
 60170  1  0
 61171  1  0
 61172  1  0
 62173  1  0
 64174  1  0
 69175  1  0
 70176  1  0
 70177  1  0
 72178  1  0
 74179  1  0
 76180  1  0
 77181  1  0
 77182  1  0
 78183  1  0
 82184  1  0
 86185  1  0
 86186  1  0
 87187  1  0
 87188  1  0
 88189  1  0
 88190  1  0
 89191  1  0
 89192  1  0
 90193  1  0
 90194  1  0
 91195  1  0
 92196  1  0
 92197  1  0
 93198  1  0
 93199  1  0
 94200  1  0
 98201  1  0
102202  1  0
102203  1  0
103204  1  0
103205  1  0
104206  1  0
104207  1  0
105208  1  0
105209  1  0
106210  1  0
106211  1  0
107212  1  0
108213  1  0
108214  1  0
110215  1  0
110216  1  0
111217  1  0
111218  1  0
112219  1  0
112220  1  0
113221  1  0
113222  1  0
114223  1  0
114224  1  0
116225  1  0
116226  1  0
117227  1  0
117228  1  0
118229  1  0
118230  1  0
119231  1  0
119232  1  0
120233  1  0
120234  1  0
M  END
