
     RDKit          3D

234252  0  0  0  0  0  0  0  0999 V2000
   -5.8722   -3.3073    0.2586 Cl  0  0  0  0  0  0  0  0  0  0  0  0
   -5.7217   -2.7862    1.7732 C   0  0  0  0  0  0  0  0  0  0  0  0
   -6.1709   -3.6097    2.8000 C   0  0  0  0  0  0  0  0  0  0  0  0
   -6.1015   -3.1763    4.1190 C   0  0  0  0  0  0  0  0  0  0  0  0
   -5.3195   -2.0613    4.3980 C   0  0  0  0  0  0  0  0  0  0  0  0
   -4.7714   -1.6397    5.5620 N   0  0  0  0  0  0  0  0  0  0  0  0
   -3.8511   -0.7197    5.2105 C   0  0  0  0  0  0  0  0  0  0  0  0
   -3.1417   -1.2103    6.4377 C   0  0  0  0  0  0  0  0  0  0  0  0
   -2.4304   -2.5165    6.1003 C   0  0  0  0  0  0  0  0  0  0  0  0
   -1.0089   -2.3483    5.9719 N   0  0  0  0  0  0  0  0  0  0  0  0
   -0.4962   -2.8954    4.7071 C   0  0  0  0  0  0  0  0  0  0  0  0
    0.2937   -1.9511    3.9009 C   0  0  0  0  0  0  0  0  0  0  0  0
   -0.1852   -1.1088    2.8504 C   0  0  0  0  0  0  0  0  0  0  0  0
    0.8390   -0.4398    2.0862 C   0  0  0  0  0  0  0  0  0  0  0  0
    1.3174   -1.6700    1.5034 C   0  0  0  0  0  0  0  0  0  0  0  0
    1.9539   -2.5749    2.4066 C   0  0  0  0  0  0  0  0  0  0  0  0
    1.7168   -1.9642    3.6881 C   0  0  0  0  0  0  0  0  0  0  0  0
    2.2567   -4.0100    2.1390 C   0  0  0  0  0  0  0  0  0  0  0  0
    1.1333   -4.8984    1.9076 N   0  0  0  0  0  0  0  0  0  0  0  0
    1.3426   -6.2491    2.2632 C   0  0  0  0  0  0  0  0  0  0  0  0
    1.2567   -7.2325    1.1291 C   0  0  0  0  0  0  0  0  0  0  0  0
    0.2086   -6.8226    0.1396 C   0  0  0  0  0  0  0  0  0  0  0  0
    1.2453   -7.1193   -0.6839 N   0  0  0  0  0  0  0  0  0  0  0  0
    0.8452   -7.0608   -1.9714 C   0  0  0  0  0  0  0  0  0  0  0  0
    1.3771   -7.4717   -3.1873 C   0  0  0  0  0  0  0  0  0  0  0  0
    0.5323   -7.4736   -4.2915 C   0  0  0  0  0  0  0  0  0  0  0  0
   -0.8419   -7.3078   -4.1598 C   0  0  0  0  0  0  0  0  0  0  0  0
   -1.9470   -7.5180   -5.4930 Cl  0  0  0  0  0  0  0  0  0  0  0  0
   -1.3258   -6.7236   -3.0107 C   0  0  0  0  0  0  0  0  0  0  0  0
   -0.4562   -6.6174   -1.9324 C   0  0  0  0  0  0  0  0  0  0  0  0
   -0.7289   -6.1787   -0.6680 C   0  0  0  0  0  0  0  0  0  0  0  0
   -1.6786   -5.2754   -1.4000 C   0  0  0  0  0  0  0  0  0  0  0  0
   -1.1039   -4.5721   -2.4791 N   0  0  0  0  0  0  0  0  0  0  0  0
   -1.6293   -3.2270   -2.6878 C   0  0  0  0  0  0  0  0  0  0  0  0
   -2.8228   -3.1828   -3.5943 C   0  0  0  0  0  0  0  0  0  0  0  0
   -4.0577   -2.4881   -3.4470 C   0  0  0  0  0  0  0  0  0  0  0  0
   -4.0576   -1.1295   -3.8737 C   0  0  0  0  0  0  0  0  0  0  0  0
   -3.9097   -1.3739   -5.2728 C   0  0  0  0  0  0  0  0  0  0  0  0
   -2.6810   -1.9617   -5.6821 C   0  0  0  0  0  0  0  0  0  0  0  0
   -2.8444   -3.2172   -5.0169 C   0  0  0  0  0  0  0  0  0  0  0  0
   -1.4430   -1.3281   -6.1410 C   0  0  0  0  0  0  0  0  0  0  0  0
   -1.0977    0.0185   -5.6910 N   0  0  0  0  0  0  0  0  0  0  0  0
    0.2610    0.3572   -5.7734 C   0  0  0  0  0  0  0  0  0  0  0  0
    1.0581    0.1332   -4.5195 C   0  0  0  0  0  0  0  0  0  0  0  0
    1.8787   -0.2919   -3.4714 C   0  0  0  0  0  0  0  0  0  0  0  0
    2.7451   -0.9474   -2.4367 C   0  0  0  0  0  0  0  0  0  0  0  0
    4.2071   -0.6875   -2.6641 C   0  0  0  0  0  0  0  0  0  0  0  0
    5.0746   -1.7325   -2.2028 N   0  0  0  0  0  0  0  0  0  0  0  0
    5.6536   -1.4703   -0.8790 C   0  0  0  0  0  0  0  0  0  0  0  0
    6.2032   -0.1351   -0.6807 C   0  0  0  0  0  0  0  0  0  0  0  0
    7.5541    0.3101   -0.7973 C   0  0  0  0  0  0  0  0  0  0  0  0
    7.7965    1.6770   -0.3960 C   0  0  0  0  0  0  0  0  0  0  0  0
    7.5853    1.3484    0.9895 C   0  0  0  0  0  0  0  0  0  0  0  0
    6.2440    1.0019    1.3367 C   0  0  0  0  0  0  0  0  0  0  0  0
    5.5901    0.9366    0.0564 C   0  0  0  0  0  0  0  0  0  0  0  0
    5.7529    0.4888    2.6224 C   0  0  0  0  0  0  0  0  0  0  0  0
    5.2799    1.5429    3.5327 N   0  0  0  0  0  0  0  0  0  0  0  0
    4.8127    0.8638    4.7551 C   0  0  0  0  0  0  0  0  0  0  0  0
    3.8450    1.8771    5.3075 C   0  0  0  0  0  0  0  0  0  0  0  0
    2.9188    2.8668    5.6364 C   0  0  0  0  0  0  0  0  0  0  0  0
    1.8640    3.9011    5.6781 C   0  0  0  0  0  0  0  0  0  0  0  0
    0.4707    3.3449    5.7148 C   0  0  0  0  0  0  0  0  0  0  0  0
   -0.5206    4.3700    5.6210 N   0  0  0  0  0  0  0  0  0  0  0  0
   -1.7260    3.9602    4.8947 C   0  0  0  0  0  0  0  0  0  0  0  0
   -1.9589    4.7034    3.6470 C   0  0  0  0  0  0  0  0  0  0  0  0
   -2.9306    5.7087    3.3621 C   0  0  0  0  0  0  0  0  0  0  0  0
   -4.1451    5.2678    2.7631 C   0  0  0  0  0  0  0  0  0  0  0  0
   -3.5686    4.8891    1.5210 C   0  0  0  0  0  0  0  0  0  0  0  0
   -2.7807    3.7027    1.5877 C   0  0  0  0  0  0  0  0  0  0  0  0
   -1.7021    4.2944    2.3036 C   0  0  0  0  0  0  0  0  0  0  0  0
   -3.1511    2.2638    1.5080 C   0  0  0  0  0  0  0  0  0  0  0  0
   -3.2625    1.5184    2.7223 N   0  0  0  0  0  0  0  0  0  0  0  0
   -4.1491    0.3421    2.5451 C   0  0  0  0  0  0  0  0  0  0  0  0
   -4.0889   -0.2861    3.9079 C   0  0  0  0  0  0  0  0  0  0  0  0
   -4.9414   -1.2034    3.3704 C   0  0  0  0  0  0  0  0  0  0  0  0
   -5.0877   -1.5773    2.0385 C   0  0  0  0  0  0  0  0  0  0  0  0
   -5.4205    4.8708    3.4067 C   0  0  0  0  0  0  0  0  0  0  0  0
   -6.1408    3.7460    2.8913 N   0  0  0  0  0  0  0  0  0  0  0  0
   -6.6422    3.9547    1.5326 C   0  0  0  0  0  0  0  0  0  0  0  0
   -7.6608    2.8863    1.1879 C   0  0  0  0  0  0  0  0  0  0  0  0
   -7.1474    1.9414    0.1437 C   0  0  0  0  0  0  0  0  0  0  0  0
   -8.0325    1.1558    0.8085 N   0  0  0  0  0  0  0  0  0  0  0  0
   -8.3484    0.1074    0.0094 C   0  0  0  0  0  0  0  0  0  0  0  0
   -9.3007   -0.8991    0.0505 C   0  0  0  0  0  0  0  0  0  0  0  0
   -9.3102   -1.8201   -0.9901 C   0  0  0  0  0  0  0  0  0  0  0  0
   -8.4983   -1.6745   -2.1082 C   0  0  0  0  0  0  0  0  0  0  0  0
   -8.7087   -2.6471   -3.5497 Cl  0  0  0  0  0  0  0  0  0  0  0  0
   -7.4977   -0.7426   -2.1019 C   0  0  0  0  0  0  0  0  0  0  0  0
   -7.3668    0.0450   -0.9641 C   0  0  0  0  0  0  0  0  0  0  0  0
   -6.5187    1.1335   -0.8065 C   0  0  0  0  0  0  0  0  0  0  0  0
   -5.6582    0.2125   -1.6210 C   0  0  0  0  0  0  0  0  0  0  0  0
   -4.9447    0.8250   -2.6548 N   0  0  0  0  0  0  0  0  0  0  0  0
   -3.7759    0.0918   -3.0951 C   0  0  0  0  0  0  0  0  0  0  0  0
    3.2923    3.3769    6.8176 N   0  0  0  0  0  0  0  0  0  0  0  0
    4.0950    2.4539    7.4017 C   0  0  0  0  0  0  0  0  0  0  0  0
    4.5721    2.3040    8.6877 C   0  0  0  0  0  0  0  0  0  0  0  0
    5.1658    1.1028    9.0444 C   0  0  0  0  0  0  0  0  0  0  0  0
    5.2775    0.0390    8.1641 C   0  0  0  0  0  0  0  0  0  0  0  0
    5.4449   -1.5812    8.7803 Cl  0  0  0  0  0  0  0  0  0  0  0  0
    4.9690    0.2599    6.8280 C   0  0  0  0  0  0  0  0  0  0  0  0
    4.4855    1.5096    6.4604 C   0  0  0  0  0  0  0  0  0  0  0  0
    7.6359    3.0191   -1.1158 C   0  0  0  0  0  0  0  0  0  0  0  0
    6.7060    3.9376   -0.5648 N   0  0  0  0  0  0  0  0  0  0  0  0
    5.9040    4.6855   -1.5474 C   0  0  0  0  0  0  0  0  0  0  0  0
    4.5088    4.6366   -0.9874 C   0  0  0  0  0  0  0  0  0  0  0  0
    3.3203    4.3922   -0.2980 C   0  0  0  0  0  0  0  0  0  0  0  0
    2.1730    4.0352    0.6032 C   0  0  0  0  0  0  0  0  0  0  0  0
    2.1430    2.5611    0.7735 C   0  0  0  0  0  0  0  0  0  0  0  0
    1.1212    1.9706    1.5128 N   0  0  0  0  0  0  0  0  0  0  0  0
    1.5535    0.8825    2.3361 C   0  0  0  0  0  0  0  0  0  0  0  0
    2.2786    4.4391   -1.1640 N   0  0  0  0  0  0  0  0  0  0  0  0
    2.7383    4.7908   -2.3669 C   0  0  0  0  0  0  0  0  0  0  0  0
    2.0676    5.4252   -3.4072 C   0  0  0  0  0  0  0  0  0  0  0  0
    2.7590    5.4733   -4.6121 C   0  0  0  0  0  0  0  0  0  0  0  0
    4.1410    5.3240   -4.6015 C   0  0  0  0  0  0  0  0  0  0  0  0
    5.1121    5.5060   -6.0443 Cl  0  0  0  0  0  0  0  0  0  0  0  0
    4.8342    5.1836   -3.4049 C   0  0  0  0  0  0  0  0  0  0  0  0
    4.1280    4.7907   -2.2901 C   0  0  0  0  0  0  0  0  0  0  0  0
    1.1614   -0.0432   -2.3478 N   0  0  0  0  0  0  0  0  0  0  0  0
    0.1680    0.8293   -2.6480 C   0  0  0  0  0  0  0  0  0  0  0  0
   -0.5314    1.7614   -1.8922 C   0  0  0  0  0  0  0  0  0  0  0  0
   -1.0278    2.9359   -2.4451 C   0  0  0  0  0  0  0  0  0  0  0  0
   -0.9775    3.0981   -3.8237 C   0  0  0  0  0  0  0  0  0  0  0  0
   -1.9779    4.3480   -4.5129 Cl  0  0  0  0  0  0  0  0  0  0  0  0
   -0.4203    2.0753   -4.5681 C   0  0  0  0  0  0  0  0  0  0  0  0
    0.0428    0.9054   -4.0303 C   0  0  0  0  0  0  0  0  0  0  0  0
   -6.3376   -4.6517    2.5517 H   0  0  0  0  0  0  0  0  0  0  0  0
   -6.3406   -3.8664    4.9291 H   0  0  0  0  0  0  0  0  0  0  0  0
   -4.7453   -2.1540    6.4638 H   0  0  0  0  0  0  0  0  0  0  0  0
   -2.4368   -0.4364    6.7942 H   0  0  0  0  0  0  0  0  0  0  0  0
   -3.9519   -1.3996    7.1837 H   0  0  0  0  0  0  0  0  0  0  0  0
   -2.6591   -3.2402    6.9010 H   0  0  0  0  0  0  0  0  0  0  0  0
   -2.8104   -2.8983    5.1265 H   0  0  0  0  0  0  0  0  0  0  0  0
   -0.7174   -1.3646    6.1069 H   0  0  0  0  0  0  0  0  0  0  0  0
   -1.2405   -3.5812    4.2264 H   0  0  0  0  0  0  0  0  0  0  0  0
    0.0447   -3.7683    5.1717 H   0  0  0  0  0  0  0  0  0  0  0  0
   -1.2232   -0.7330    2.7383 H   0  0  0  0  0  0  0  0  0  0  0  0
    1.3877   -1.7023    0.3958 H   0  0  0  0  0  0  0  0  0  0  0  0
    2.4818   -1.5593    4.3643 H   0  0  0  0  0  0  0  0  0  0  0  0
    2.6934   -4.5791    3.0061 H   0  0  0  0  0  0  0  0  0  0  0  0
    3.1389   -4.2289    1.4818 H   0  0  0  0  0  0  0  0  0  0  0  0
    0.8021   -4.7144    0.9468 H   0  0  0  0  0  0  0  0  0  0  0  0
    2.3354   -6.3436    2.7496 H   0  0  0  0  0  0  0  0  0  0  0  0
    0.5943   -6.5776    3.0264 H   0  0  0  0  0  0  0  0  0  0  0  0
    0.9755   -8.2409    1.4644 H   0  0  0  0  0  0  0  0  0  0  0  0
    2.2688   -7.2652    0.6567 H   0  0  0  0  0  0  0  0  0  0  0  0
    2.2225   -7.4091   -0.4288 H   0  0  0  0  0  0  0  0  0  0  0  0
    2.4566   -7.3425   -3.2894 H   0  0  0  0  0  0  0  0  0  0  0  0
    0.9551   -7.4238   -5.2971 H   0  0  0  0  0  0  0  0  0  0  0  0
   -2.3565   -6.5556   -2.7837 H   0  0  0  0  0  0  0  0  0  0  0  0
   -1.6817   -4.3941   -0.6779 H   0  0  0  0  0  0  0  0  0  0  0  0
   -2.7108   -5.4953   -1.2899 H   0  0  0  0  0  0  0  0  0  0  0  0
   -0.0915   -4.4762   -2.2992 H   0  0  0  0  0  0  0  0  0  0  0  0
   -1.7669   -2.9244   -1.6446 H   0  0  0  0  0  0  0  0  0  0  0  0
   -0.7796   -2.5427   -2.9412 H   0  0  0  0  0  0  0  0  0  0  0  0
   -4.9195   -2.9474   -2.9189 H   0  0  0  0  0  0  0  0  0  0  0  0
   -4.6797   -1.0492   -6.0040 H   0  0  0  0  0  0  0  0  0  0  0  0
   -2.8852   -4.1734   -5.5817 H   0  0  0  0  0  0  0  0  0  0  0  0
   -0.4591   -1.7931   -5.8746 H   0  0  0  0  0  0  0  0  0  0  0  0
   -1.3331   -1.2764   -7.2576 H   0  0  0  0  0  0  0  0  0  0  0  0
   -1.7237    0.6136   -6.2973 H   0  0  0  0  0  0  0  0  0  0  0  0
    0.7024    1.0101   -6.4995 H   0  0  0  0  0  0  0  0  0  0  0  0
    0.6302   -0.5644   -6.3353 H   0  0  0  0  0  0  0  0  0  0  0  0
    2.5121   -2.0397   -2.3625 H   0  0  0  0  0  0  0  0  0  0  0  0
    2.4955   -0.5316   -1.4357 H   0  0  0  0  0  0  0  0  0  0  0  0
    4.4659    0.3134   -2.2932 H   0  0  0  0  0  0  0  0  0  0  0  0
    4.3410   -0.6372   -3.7758 H   0  0  0  0  0  0  0  0  0  0  0  0
    5.8212   -2.0001   -2.8749 H   0  0  0  0  0  0  0  0  0  0  0  0
    6.2249   -2.4016   -0.6323 H   0  0  0  0  0  0  0  0  0  0  0  0
    4.7834   -1.8052   -0.2478 H   0  0  0  0  0  0  0  0  0  0  0  0
    8.3395   -0.1720   -1.4185 H   0  0  0  0  0  0  0  0  0  0  0  0
    8.3947    1.6070    1.7048 H   0  0  0  0  0  0  0  0  0  0  0  0
    4.7991    1.6041   -0.3114 H   0  0  0  0  0  0  0  0  0  0  0  0
    4.8053   -0.1198    2.6166 H   0  0  0  0  0  0  0  0  0  0  0  0
    6.3012   -0.3150    3.1765 H   0  0  0  0  0  0  0  0  0  0  0  0
    5.9966    2.2553    3.7211 H   0  0  0  0  0  0  0  0  0  0  0  0
    4.3447   -0.0131    4.3472 H   0  0  0  0  0  0  0  0  0  0  0  0
    5.7357    0.8252    5.3072 H   0  0  0  0  0  0  0  0  0  0  0  0
    2.0162    4.5040    6.5943 H   0  0  0  0  0  0  0  0  0  0  0  0
    2.0204    4.6016    4.8197 H   0  0  0  0  0  0  0  0  0  0  0  0
    0.3471    2.8466    6.7071 H   0  0  0  0  0  0  0  0  0  0  0  0
    0.2598    2.5883    4.9491 H   0  0  0  0  0  0  0  0  0  0  0  0
   -0.7311    4.8681    6.4990 H   0  0  0  0  0  0  0  0  0  0  0  0
   -1.6228    2.8452    4.8648 H   0  0  0  0  0  0  0  0  0  0  0  0
   -2.5165    3.9619    5.6888 H   0  0  0  0  0  0  0  0  0  0  0  0
   -2.7735    6.7673    3.6613 H   0  0  0  0  0  0  0  0  0  0  0  0
   -3.8594    5.3539    0.5572 H   0  0  0  0  0  0  0  0  0  0  0  0
   -0.6835    4.3714    1.8645 H   0  0  0  0  0  0  0  0  0  0  0  0
   -2.5235    1.6542    0.8072 H   0  0  0  0  0  0  0  0  0  0  0  0
   -4.1422    2.0363    1.0398 H   0  0  0  0  0  0  0  0  0  0  0  0
   -3.7021    2.0364    3.5111 H   0  0  0  0  0  0  0  0  0  0  0  0
   -3.5689   -0.1608    1.7970 H   0  0  0  0  0  0  0  0  0  0  0  0
   -5.0688    0.8537    2.3488 H   0  0  0  0  0  0  0  0  0  0  0  0
   -5.3258   -0.7688    1.3820 H   0  0  0  0  0  0  0  0  0  0  0  0
   -6.1962    5.6821    3.3897 H   0  0  0  0  0  0  0  0  0  0  0  0
   -5.3942    4.5787    4.4872 H   0  0  0  0  0  0  0  0  0  0  0  0
   -6.9986    3.6456    3.4565 H   0  0  0  0  0  0  0  0  0  0  0  0
   -7.1564    4.9481    1.4959 H   0  0  0  0  0  0  0  0  0  0  0  0
   -5.8639    3.8696    0.7666 H   0  0  0  0  0  0  0  0  0  0  0  0
   -8.5635    3.3624    0.7275 H   0  0  0  0  0  0  0  0  0  0  0  0
   -7.9669    2.3348    2.0942 H   0  0  0  0  0  0  0  0  0  0  0  0
   -8.5620    1.3989    1.6837 H   0  0  0  0  0  0  0  0  0  0  0  0
   -9.7295   -1.1481    1.0228 H   0  0  0  0  0  0  0  0  0  0  0  0
   -9.8843   -2.7425   -0.8884 H   0  0  0  0  0  0  0  0  0  0  0  0
   -7.0086   -0.3500   -2.9871 H   0  0  0  0  0  0  0  0  0  0  0  0
   -5.9005   -0.8305   -1.5673 H   0  0  0  0  0  0  0  0  0  0  0  0
   -4.7735    0.1291   -0.9043 H   0  0  0  0  0  0  0  0  0  0  0  0
   -5.4222    1.3677   -3.3679 H   0  0  0  0  0  0  0  0  0  0  0  0
   -3.1609    0.0131   -2.1612 H   0  0  0  0  0  0  0  0  0  0  0  0
   -3.1492    0.8931   -3.5636 H   0  0  0  0  0  0  0  0  0  0  0  0
    2.9372    4.2588    7.2224 H   0  0  0  0  0  0  0  0  0  0  0  0
    4.3825    3.0963    9.4104 H   0  0  0  0  0  0  0  0  0  0  0  0
    5.4012    0.9943   10.1018 H   0  0  0  0  0  0  0  0  0  0  0  0
    4.7161   -0.5578    6.1503 H   0  0  0  0  0  0  0  0  0  0  0  0
    8.6185    3.5437   -1.2401 H   0  0  0  0  0  0  0  0  0  0  0  0
    7.2761    2.9572   -2.1460 H   0  0  0  0  0  0  0  0  0  0  0  0
    7.0107    4.4961    0.2349 H   0  0  0  0  0  0  0  0  0  0  0  0
    6.3617    5.6556   -1.4337 H   0  0  0  0  0  0  0  0  0  0  0  0
    6.0501    4.0705   -2.4149 H   0  0  0  0  0  0  0  0  0  0  0  0
    2.3723    4.4924    1.5992 H   0  0  0  0  0  0  0  0  0  0  0  0
    1.2598    4.4827    0.1868 H   0  0  0  0  0  0  0  0  0  0  0  0
    3.1065    2.3021    1.2860 H   0  0  0  0  0  0  0  0  0  0  0  0
    2.1862    2.0992   -0.2453 H   0  0  0  0  0  0  0  0  0  0  0  0
    0.1728    1.9291    1.1511 H   0  0  0  0  0  0  0  0  0  0  0  0
    2.6481    0.8735    2.2646 H   0  0  0  0  0  0  0  0  0  0  0  0
    1.4849    1.2901    3.3628 H   0  0  0  0  0  0  0  0  0  0  0  0
    1.2602    4.4289   -0.8943 H   0  0  0  0  0  0  0  0  0  0  0  0
    1.0074    5.5738   -3.3870 H   0  0  0  0  0  0  0  0  0  0  0  0
    2.2405    5.5415   -5.5687 H   0  0  0  0  0  0  0  0  0  0  0  0
    5.7291    5.7772   -3.2082 H   0  0  0  0  0  0  0  0  0  0  0  0
    1.5609   -0.1056   -1.3747 H   0  0  0  0  0  0  0  0  0  0  0  0
   -0.8801    1.3987   -0.9227 H   0  0  0  0  0  0  0  0  0  0  0  0
   -1.6964    3.5168   -1.8406 H   0  0  0  0  0  0  0  0  0  0  0  0
   -0.2262    2.2916   -5.5865 H   0  0  0  0  0  0  0  0  0  0  0  0
  1  2  1  0
  2  3  2  0
  3  4  1  0
  4  5  2  0
  5  6  1  0
  6  7  1  0
  7  8  1  0
  8  9  1  0
  9 10  1  0
 10 11  1  0
 11 12  1  0
 12 13  2  0
 13 14  1  0
 14 15  2  0
 15 16  1  0
 16 17  2  0
 16 18  1  0
 18 19  1  0
 19 20  1  0
 20 21  1  0
 21 22  1  0
 22 23  1  0
 23 24  1  0
 24 25  2  0
 25 26  1  0
 26 27  2  0
 27 28  1  0
 27 29  1  0
 29 30  2  0
 30 31  1  0
 31 32  1  0
 32 33  1  0
 33 34  1  0
 34 35  1  0
 35 36  2  0
 36 37  1  0
 37 38  2  0
 38 39  1  0
 39 40  2  0
 39 41  1  0
 41 42  1  0
 42 43  1  0
 43 44  1  0
 44 45  2  0
 45 46  1  0
 46 47  1  0
 47 48  1  0
 48 49  1  0
 49 50  1  0
 50 51  2  0
 51 52  1  0
 52 53  2  0
 53 54  1  0
 54 55  2  0
 54 56  1  0
 56 57  1  0
 57 58  1  0
 58 59  1  0
 59 60  2  0
 60 61  1  0
 61 62  1  0
 62 63  1  0
 63 64  1  0
 64 65  1  0
 65 66  1  0
 66 67  2  0
 67 68  1  0
 68 69  2  0
 69 70  1  0
 69 71  1  0
 71 72  1  0
 72 73  1  0
 73 74  1  0
 74 75  1  0
 75 76  2  0
 67 77  1  0
 77 78  1  0
 78 79  1  0
 79 80  1  0
 80 81  1  0
 81 82  1  0
 82 83  1  0
 83 84  2  0
 84 85  1  0
 85 86  2  0
 86 87  1  0
 86 88  1  0
 88 89  2  0
 89 90  1  0
 90 91  1  0
 91 92  1  0
 92 93  1  0
 60 94  1  0
 94 95  1  0
 95 96  2  0
 96 97  1  0
 97 98  2  0
 98 99  1  0
 98100  1  0
100101  2  0
 52102  1  0
102103  1  0
103104  1  0
104105  1  0
105106  2  0
106107  1  0
107108  1  0
108109  1  0
109110  1  0
106111  1  0
111112  1  0
112113  2  0
113114  1  0
114115  2  0
115116  1  0
115117  1  0
117118  2  0
 45119  1  0
119120  1  0
120121  2  0
121122  1  0
122123  2  0
123124  1  0
123125  1  0
125126  2  0
 76  2  1  0
 90 81  2  0
101 95  1  0
118105  1  0
126120  1  0
 75  5  1  0
 89 83  1  0
118112  1  0
 74  7  2  0
 17 12  1  0
 31 22  2  0
 40 35  1  0
126 44  1  0
110 14  1  0
 30 24  1  0
 93 37  1  0
 55 50  1  0
101 59  1  0
 70 65  2  0
  3127  1  0
  4128  1  0
  6129  1  0
  8130  1  0
  8131  1  0
  9132  1  0
  9133  1  0
 10134  1  0
 11135  1  0
 11136  1  0
 13137  1  0
 15138  1  0
 17139  1  0
 18140  1  0
 18141  1  0
 19142  1  0
 20143  1  0
 20144  1  0
 21145  1  0
 21146  1  0
 23147  1  0
 25148  1  0
 26149  1  0
 29150  1  0
 32151  1  0
 32152  1  0
 33153  1  0
 34154  1  0
 34155  1  0
 36156  1  0
 38157  1  0
 40158  1  0
 41159  1  0
 41160  1  0
 42161  1  0
 43162  1  0
 43163  1  0
 46164  1  0
 46165  1  0
 47166  1  0
 47167  1  0
 48168  1  0
 49169  1  0
 49170  1  0
 51171  1  0
 53172  1  0
 55173  1  0
 56174  1  0
 56175  1  0
 57176  1  0
 58177  1  0
 58178  1  0
 61179  1  0
 61180  1  0
 62181  1  0
 62182  1  0
 63183  1  0
 64184  1  0
 64185  1  0
 66186  1  0
 68187  1  0
 70188  1  0
 71189  1  0
 71190  1  0
 72191  1  0
 73192  1  0
 73193  1  0
 76194  1  0
 77195  1  0
 77196  1  0
 78197  1  0
 79198  1  0
 79199  1  0
 80200  1  0
 80201  1  0
 82202  1  0
 84203  1  0
 85204  1  0
 88205  1  0
 91206  1  0
 91207  1  0
 92208  1  0
 93209  1  0
 93210  1  0
 94211  1  0
 96212  1  0
 97213  1  0
100214  1  0
102215  1  0
102216  1  0
103217  1  0
104218  1  0
104219  1  0
107220  1  0
107221  1  0
108222  1  0
108223  1  0
109224  1  0
110225  1  0
110226  1  0
111227  1  0
113228  1  0
114229  1  0
117230  1  0
119231  1  0
121232  1  0
122233  1  0
125234  1  0
M  END
