
     RDKit          3D

192198  0  0  0  0  0  0  0  0999 V2000
    0.0331   -1.8199   -8.9712 C   0  0  0  0  0  0  0  0  0  0  0  0
   -1.1729   -1.5564   -8.4907 C   0  0  0  0  0  0  0  0  0  0  0  0
   -0.7420   -0.2671   -7.9369 C   0  0  0  0  0  0  0  0  0  0  0  0
    0.2205   -0.1818   -8.7552 O   0  0  0  0  0  0  0  0  0  0  0  0
   -0.4993    0.9774   -7.3497 O   0  0  0  0  0  0  0  0  0  0  0  0
   -0.2959    2.2752   -6.8207 C   0  0  0  0  0  0  0  0  0  0  0  0
   -0.0243    2.2398   -5.4090 N   0  0  0  0  0  0  0  0  0  0  0  0
    1.2528    1.7141   -5.0595 C   0  0  0  0  0  0  0  0  0  0  0  0
    2.3352    2.7828   -4.8623 C   0  0  0  0  0  0  0  0  0  0  0  0
    3.1035    3.4985   -5.8332 C   0  0  0  0  0  0  0  0  0  0  0  0
    3.2068    4.9111   -5.6536 C   0  0  0  0  0  0  0  0  0  0  0  0
    1.9539    5.2056   -5.0275 C   0  0  0  0  0  0  0  0  0  0  0  0
    1.8769    4.8061   -3.6587 C   0  0  0  0  0  0  0  0  0  0  0  0
    2.5771    3.5563   -3.6900 C   0  0  0  0  0  0  0  0  0  0  0  0
    1.2620    5.5720   -2.4947 C   0  0  0  0  0  0  0  0  0  0  0  0
   -0.1713    5.7937   -2.6646 N   0  0  0  0  0  0  0  0  0  0  0  0
   -0.8738    4.5531   -2.5778 C   0  0  0  0  0  0  0  0  0  0  0  0
   -1.6565    4.5853   -1.4141 O   0  0  0  0  0  0  0  0  0  0  0  0
   -2.5055    4.1111   -0.4104 C   0  0  0  0  0  0  0  0  0  0  0  0
   -2.0752    4.8732    0.4763 O   0  0  0  0  0  0  0  0  0  0  0  0
   -3.2282    3.1974    0.4881 C   0  0  0  0  0  0  0  0  0  0  0  0
   -2.8397    3.8116    1.5822 C   0  0  0  0  0  0  0  0  0  0  0  0
   -3.5907    1.9370    1.1512 C   0  0  0  0  0  0  0  0  0  0  0  0
   -3.5056    2.4073    2.3023 O   0  0  0  0  0  0  0  0  0  0  0  0
   -3.6936    0.6033    1.5580 O   0  0  0  0  0  0  0  0  0  0  0  0
   -3.7251   -0.7998    1.5669 C   0  0  0  0  0  0  0  0  0  0  0  0
   -5.1065   -1.2758    1.5585 N   0  0  0  0  0  0  0  0  0  0  0  0
   -5.2411   -2.6162    2.0284 C   0  0  0  0  0  0  0  0  0  0  0  0
   -5.3878   -2.7325    3.5497 C   0  0  0  0  0  0  0  0  0  0  0  0
   -6.5726   -2.4730    4.3042 C   0  0  0  0  0  0  0  0  0  0  0  0
   -6.6939   -1.1291    4.7761 C   0  0  0  0  0  0  0  0  0  0  0  0
   -5.3391   -0.8149    5.1036 C   0  0  0  0  0  0  0  0  0  0  0  0
   -4.6424   -1.9043    5.7116 C   0  0  0  0  0  0  0  0  0  0  0  0
   -4.3895   -2.7299    4.5743 C   0  0  0  0  0  0  0  0  0  0  0  0
   -4.5300   -2.2847    7.1958 C   0  0  0  0  0  0  0  0  0  0  0  0
   -3.1313   -2.5005    7.5640 N   0  0  0  0  0  0  0  0  0  0  0  0
   -2.9401   -3.9492    7.5469 C   0  0  0  0  0  0  0  0  0  0  0  0
   -1.5644   -4.2906    7.6669 O   0  0  0  0  0  0  0  0  0  0  0  0
   -0.1680   -4.3093    7.7309 C   0  0  0  0  0  0  0  0  0  0  0  0
    0.0014   -5.1534    6.8213 O   0  0  0  0  0  0  0  0  0  0  0  0
    1.2272   -3.8519    7.7273 C   0  0  0  0  0  0  0  0  0  0  0  0
    1.6524   -4.7110    6.8212 C   0  0  0  0  0  0  0  0  0  0  0  0
    2.4570   -3.0501    7.7524 C   0  0  0  0  0  0  0  0  0  0  0  0
    3.0911   -3.7976    6.9784 O   0  0  0  0  0  0  0  0  0  0  0  0
    3.3169   -1.9543    7.6288 O   0  0  0  0  0  0  0  0  0  0  0  0
    3.8763   -0.6469    7.5260 C   0  0  0  0  0  0  0  0  0  0  0  0
    3.7504   -0.2533    6.1426 N   0  0  0  0  0  0  0  0  0  0  0  0
    4.7825    0.6507    5.7108 C   0  0  0  0  0  0  0  0  0  0  0  0
    4.2505    1.7534    4.7990 C   0  0  0  0  0  0  0  0  0  0  0  0
    4.0989    1.7627    3.3794 C   0  0  0  0  0  0  0  0  0  0  0  0
    4.3035    3.0525    2.8035 C   0  0  0  0  0  0  0  0  0  0  0  0
    3.0773    3.7025    3.1450 C   0  0  0  0  0  0  0  0  0  0  0  0
    2.5255    3.3861    4.4254 C   0  0  0  0  0  0  0  0  0  0  0  0
    3.6916    3.0185    5.1635 C   0  0  0  0  0  0  0  0  0  0  0  0
    1.0746    3.1042    4.8304 C   0  0  0  0  0  0  0  0  0  0  0  0
    0.6741    1.7470    4.6452 N   0  0  0  0  0  0  0  0  0  0  0  0
    0.2117    1.5352    3.2873 C   0  0  0  0  0  0  0  0  0  0  0  0
    0.4221    0.1709    2.9709 O   0  0  0  0  0  0  0  0  0  0  0  0
    0.9442   -1.0459    2.5213 C   0  0  0  0  0  0  0  0  0  0  0  0
   -0.1074   -1.6858    2.7533 O   0  0  0  0  0  0  0  0  0  0  0  0
    1.5580   -2.0535    1.6473 C   0  0  0  0  0  0  0  0  0  0  0  0
    0.4787   -2.8239    1.6192 C   0  0  0  0  0  0  0  0  0  0  0  0
    2.1945   -2.7622    0.5296 C   0  0  0  0  0  0  0  0  0  0  0  0
    1.4908   -3.7888    0.6354 O   0  0  0  0  0  0  0  0  0  0  0  0
    2.6965   -3.0361   -0.7458 O   0  0  0  0  0  0  0  0  0  0  0  0
    3.0632   -2.9702   -2.1219 C   0  0  0  0  0  0  0  0  0  0  0  0
    2.2840   -3.8759   -2.9234 N   0  0  0  0  0  0  0  0  0  0  0  0
    1.2451   -3.1327   -3.6404 C   0  0  0  0  0  0  0  0  0  0  0  0
    0.0299   -4.0380   -3.8666 C   0  0  0  0  0  0  0  0  0  0  0  0
   -0.4146   -4.7342   -5.0370 C   0  0  0  0  0  0  0  0  0  0  0  0
   -1.7944   -4.5915   -5.3750 C   0  0  0  0  0  0  0  0  0  0  0  0
   -2.1004   -3.3168   -4.8035 C   0  0  0  0  0  0  0  0  0  0  0  0
   -2.2031   -3.3339   -3.3795 C   0  0  0  0  0  0  0  0  0  0  0  0
   -1.1077   -4.1806   -3.0186 C   0  0  0  0  0  0  0  0  0  0  0  0
   -3.2131   -2.6013   -2.5012 C   0  0  0  0  0  0  0  0  0  0  0  0
   -2.8648   -1.1984   -2.3402 N   0  0  0  0  0  0  0  0  0  0  0  0
   -3.7549   -0.4633   -3.2368 C   0  0  0  0  0  0  0  0  0  0  0  0
   -4.7995    0.1750   -2.5465 O   0  0  0  0  0  0  0  0  0  0  0  0
   -5.9219    0.6815   -1.8839 C   0  0  0  0  0  0  0  0  0  0  0  0
   -6.1630    1.6066   -2.6854 O   0  0  0  0  0  0  0  0  0  0  0  0
   -6.8406    1.2245   -0.8745 C   0  0  0  0  0  0  0  0  0  0  0  0
   -6.9669    2.4170   -1.4084 C   0  0  0  0  0  0  0  0  0  0  0  0
   -7.3980    1.5786    0.4381 C   0  0  0  0  0  0  0  0  0  0  0  0
   -7.3647    2.8048    0.2119 O   0  0  0  0  0  0  0  0  0  0  0  0
   -7.5666    1.7033    1.8217 O   0  0  0  0  0  0  0  0  0  0  0  0
   -7.4581    1.4807    3.2264 C   0  0  0  0  0  0  0  0  0  0  0  0
   -8.2567    0.3282    3.5441 N   0  0  0  0  0  0  0  0  0  0  0  0
   -7.9464   -0.2583    4.8218 C   0  0  0  0  0  0  0  0  0  0  0  0
   -2.7600   -5.6803   -5.8576 C   0  0  0  0  0  0  0  0  0  0  0  0
   -2.3706   -6.1647   -7.1827 N   0  0  0  0  0  0  0  0  0  0  0  0
   -2.9296   -5.3612   -8.2408 C   0  0  0  0  0  0  0  0  0  0  0  0
   -2.1581   -4.1996   -8.4829 O   0  0  0  0  0  0  0  0  0  0  0  0
   -1.6056   -2.9463   -8.6660 C   0  0  0  0  0  0  0  0  0  0  0  0
   -0.5035   -3.3894   -9.0683 O   0  0  0  0  0  0  0  0  0  0  0  0
    5.5983    3.6457    2.2399 C   0  0  0  0  0  0  0  0  0  0  0  0
    5.6284    3.4943    0.7880 N   0  0  0  0  0  0  0  0  0  0  0  0
    6.7116    2.6567    0.3423 C   0  0  0  0  0  0  0  0  0  0  0  0
    7.1420    3.0805   -0.9497 O   0  0  0  0  0  0  0  0  0  0  0  0
    7.5437    3.5605   -2.2004 C   0  0  0  0  0  0  0  0  0  0  0  0
    7.9248    4.6820   -1.7706 O   0  0  0  0  0  0  0  0  0  0  0  0
    7.6663    3.9383   -3.6150 C   0  0  0  0  0  0  0  0  0  0  0  0
    8.0373    5.1742   -3.3144 C   0  0  0  0  0  0  0  0  0  0  0  0
    7.5164    4.1647   -5.0594 C   0  0  0  0  0  0  0  0  0  0  0  0
    8.1234    5.2543   -5.0229 O   0  0  0  0  0  0  0  0  0  0  0  0
    6.7869    4.4922   -6.2090 O   0  0  0  0  0  0  0  0  0  0  0  0
    5.9773    4.7753   -7.3262 C   0  0  0  0  0  0  0  0  0  0  0  0
    4.9988    5.8009   -7.0894 N   0  0  0  0  0  0  0  0  0  0  0  0
    4.4717    5.7777   -5.7272 C   0  0  0  0  0  0  0  0  0  0  0  0
    0.2168   -1.7557  -10.0365 H   0  0  0  0  0  0  0  0  0  0  0  0
    0.7970   -2.0590   -8.2410 H   0  0  0  0  0  0  0  0  0  0  0  0
   -1.2558    2.8288   -6.9526 H   0  0  0  0  0  0  0  0  0  0  0  0
    0.4725    2.8500   -7.3564 H   0  0  0  0  0  0  0  0  0  0  0  0
   -0.7884    1.7067   -4.9201 H   0  0  0  0  0  0  0  0  0  0  0  0
    1.2425    1.0002   -4.2075 H   0  0  0  0  0  0  0  0  0  0  0  0
    1.5369    1.0045   -5.8783 H   0  0  0  0  0  0  0  0  0  0  0  0
    3.5362    2.9947   -6.7034 H   0  0  0  0  0  0  0  0  0  0  0  0
    1.1656    5.7481   -5.5562 H   0  0  0  0  0  0  0  0  0  0  0  0
    3.1818    3.1824   -2.8594 H   0  0  0  0  0  0  0  0  0  0  0  0
    1.8080    6.5211   -2.2757 H   0  0  0  0  0  0  0  0  0  0  0  0
    1.3016    5.0376   -1.5467 H   0  0  0  0  0  0  0  0  0  0  0  0
   -0.4252    6.5019   -1.9605 H   0  0  0  0  0  0  0  0  0  0  0  0
   -0.1425    3.7216   -2.6054 H   0  0  0  0  0  0  0  0  0  0  0  0
   -1.4862    4.4425   -3.5078 H   0  0  0  0  0  0  0  0  0  0  0  0
   -1.8825    3.6238    2.0634 H   0  0  0  0  0  0  0  0  0  0  0  0
   -3.5641    4.4866    2.0413 H   0  0  0  0  0  0  0  0  0  0  0  0
   -3.1105   -1.2727    0.7864 H   0  0  0  0  0  0  0  0  0  0  0  0
   -3.2921   -1.1340    2.5436 H   0  0  0  0  0  0  0  0  0  0  0  0
   -5.5206   -1.2174    0.6116 H   0  0  0  0  0  0  0  0  0  0  0  0
   -4.3298   -3.1596    1.6713 H   0  0  0  0  0  0  0  0  0  0  0  0
   -6.0190   -3.2152    1.5072 H   0  0  0  0  0  0  0  0  0  0  0  0
   -7.3173   -3.2525    4.4934 H   0  0  0  0  0  0  0  0  0  0  0  0
   -4.9061    0.1854    5.0420 H   0  0  0  0  0  0  0  0  0  0  0  0
   -3.4711   -3.3173    4.4783 H   0  0  0  0  0  0  0  0  0  0  0  0
   -5.1826   -3.1198    7.4767 H   0  0  0  0  0  0  0  0  0  0  0  0
   -4.8268   -1.4706    7.8567 H   0  0  0  0  0  0  0  0  0  0  0  0
   -2.9106   -2.1926    8.5231 H   0  0  0  0  0  0  0  0  0  0  0  0
   -3.3656   -4.4105    6.6380 H   0  0  0  0  0  0  0  0  0  0  0  0
   -3.4871   -4.3281    8.4467 H   0  0  0  0  0  0  0  0  0  0  0  0
    1.5872   -4.4381    5.7693 H   0  0  0  0  0  0  0  0  0  0  0  0
    2.0838   -5.6709    7.0372 H   0  0  0  0  0  0  0  0  0  0  0  0
    4.9219   -0.7141    7.8647 H   0  0  0  0  0  0  0  0  0  0  0  0
    3.3588    0.0538    8.2225 H   0  0  0  0  0  0  0  0  0  0  0  0
    3.7222   -1.0620    5.4933 H   0  0  0  0  0  0  0  0  0  0  0  0
    5.2907    1.0323    6.6038 H   0  0  0  0  0  0  0  0  0  0  0  0
    5.5723    0.0486    5.2453 H   0  0  0  0  0  0  0  0  0  0  0  0
    3.9398    0.8706    2.7696 H   0  0  0  0  0  0  0  0  0  0  0  0
    2.6077    4.4348    2.4816 H   0  0  0  0  0  0  0  0  0  0  0  0
    4.1123    3.6638    5.9407 H   0  0  0  0  0  0  0  0  0  0  0  0
    0.3597    3.7188    4.2450 H   0  0  0  0  0  0  0  0  0  0  0  0
    0.8669    3.5085    5.8531 H   0  0  0  0  0  0  0  0  0  0  0  0
   -0.0224    1.4889    5.3644 H   0  0  0  0  0  0  0  0  0  0  0  0
    0.7096    2.2128    2.5773 H   0  0  0  0  0  0  0  0  0  0  0  0
   -0.8726    1.7154    3.2858 H   0  0  0  0  0  0  0  0  0  0  0  0
   -0.2208   -2.6474    0.8088 H   0  0  0  0  0  0  0  0  0  0  0  0
    0.3297   -3.6441    2.3215 H   0  0  0  0  0  0  0  0  0  0  0  0
    4.1222   -3.3305   -2.1656 H   0  0  0  0  0  0  0  0  0  0  0  0
    3.0768   -1.9333   -2.5035 H   0  0  0  0  0  0  0  0  0  0  0  0
    2.8506   -4.4667   -3.5555 H   0  0  0  0  0  0  0  0  0  0  0  0
    1.0112   -2.1721   -3.1717 H   0  0  0  0  0  0  0  0  0  0  0  0
    1.7376   -2.8281   -4.5712 H   0  0  0  0  0  0  0  0  0  0  0  0
    0.2920   -5.2536   -5.6918 H   0  0  0  0  0  0  0  0  0  0  0  0
   -2.2882   -2.4384   -5.4259 H   0  0  0  0  0  0  0  0  0  0  0  0
   -1.1092   -4.8344   -2.1429 H   0  0  0  0  0  0  0  0  0  0  0  0
   -4.2651   -2.7331   -2.8614 H   0  0  0  0  0  0  0  0  0  0  0  0
   -3.2841   -2.9996   -1.4887 H   0  0  0  0  0  0  0  0  0  0  0  0
   -1.8959   -1.0302   -2.7201 H   0  0  0  0  0  0  0  0  0  0  0  0
   -3.2142    0.3008   -3.8262 H   0  0  0  0  0  0  0  0  0  0  0  0
   -4.2269   -1.1415   -3.9913 H   0  0  0  0  0  0  0  0  0  0  0  0
   -7.9363    2.6474   -1.8537 H   0  0  0  0  0  0  0  0  0  0  0  0
   -6.2040    3.1815   -1.4083 H   0  0  0  0  0  0  0  0  0  0  0  0
   -6.4212    1.2882    3.5433 H   0  0  0  0  0  0  0  0  0  0  0  0
   -7.7888    2.4103    3.7102 H   0  0  0  0  0  0  0  0  0  0  0  0
   -9.2850    0.5115    3.5324 H   0  0  0  0  0  0  0  0  0  0  0  0
   -7.8650    0.5779    5.5247 H   0  0  0  0  0  0  0  0  0  0  0  0
   -8.8240   -0.8026    5.2529 H   0  0  0  0  0  0  0  0  0  0  0  0
   -3.7580   -5.2935   -6.0649 H   0  0  0  0  0  0  0  0  0  0  0  0
   -2.9094   -6.4854   -5.1312 H   0  0  0  0  0  0  0  0  0  0  0  0
   -1.3214   -6.1241   -7.2214 H   0  0  0  0  0  0  0  0  0  0  0  0
   -2.8850   -5.9875   -9.1676 H   0  0  0  0  0  0  0  0  0  0  0  0
   -3.9824   -5.1102   -8.0433 H   0  0  0  0  0  0  0  0  0  0  0  0
    5.7248    4.7112    2.4389 H   0  0  0  0  0  0  0  0  0  0  0  0
    6.5083    3.2032    2.6362 H   0  0  0  0  0  0  0  0  0  0  0  0
    5.7108    4.3996    0.2919 H   0  0  0  0  0  0  0  0  0  0  0  0
    6.3425    1.6050    0.2417 H   0  0  0  0  0  0  0  0  0  0  0  0
    7.5572    2.6263    1.0557 H   0  0  0  0  0  0  0  0  0  0  0  0
    7.2581    5.9329   -3.2227 H   0  0  0  0  0  0  0  0  0  0  0  0
    9.0598    5.5000   -3.2402 H   0  0  0  0  0  0  0  0  0  0  0  0
    6.6722    5.1218   -8.1331 H   0  0  0  0  0  0  0  0  0  0  0  0
    5.5545    3.8236   -7.6923 H   0  0  0  0  0  0  0  0  0  0  0  0
    5.4172    6.7064   -7.3514 H   0  0  0  0  0  0  0  0  0  0  0  0
    5.2227    5.5134   -4.9753 H   0  0  0  0  0  0  0  0  0  0  0  0
    4.2605    6.8336   -5.5446 H   0  0  0  0  0  0  0  0  0  0  0  0
  1  2  2  3
  2  3  1  0
  3  4  2  0
  3  5  1  0
  5  6  1  0
  6  7  1  0
  7  8  1  0
  8  9  1  0
  9 10  2  0
 10 11  1  0
 11 12  2  0
 12 13  1  0
 13 14  2  0
 13 15  1  0
 15 16  1  0
 16 17  1  0
 17 18  1  0
 18 19  1  0
 19 20  2  0
 19 21  1  0
 21 22  2  3
 21 23  1  0
 23 24  2  0
 23 25  1  0
 25 26  1  0
 26 27  1  0
 27 28  1  0
 28 29  1  0
 29 30  2  0
 30 31  1  0
 31 32  2  0
 32 33  1  0
 33 34  2  0
 33 35  1  0
 35 36  1  0
 36 37  1  0
 37 38  1  0
 38 39  1  0
 39 40  2  0
 39 41  1  0
 41 42  2  3
 41 43  1  0
 43 44  2  0
 43 45  1  0
 45 46  1  0
 46 47  1  0
 47 48  1  0
 48 49  1  0
 49 50  1  0
 50 51  2  0
 51 52  1  0
 52 53  2  0
 53 54  1  0
 53 55  1  0
 55 56  1  0
 56 57  1  0
 57 58  1  0
 58 59  1  0
 59 60  2  0
 59 61  1  0
 61 62  2  3
 61 63  1  0
 63 64  2  0
 63 65  1  0
 65 66  1  0
 66 67  1  0
 67 68  1  0
 68 69  1  0
 69 70  1  0
 70 71  2  0
 71 72  1  0
 72 73  2  0
 73 74  1  0
 73 75  1  0
 75 76  1  0
 76 77  1  0
 77 78  1  0
 78 79  1  0
 79 80  2  0
 79 81  1  0
 81 82  2  3
 81 83  1  0
 83 84  2  0
 83 85  1  0
 85 86  1  0
 86 87  1  0
 87 88  1  0
 71 89  1  0
 89 90  1  0
 90 91  1  0
 91 92  1  0
 92 93  1  0
 93 94  2  0
 51 95  1  0
 95 96  1  0
 96 97  1  0
 97 98  1  0
 98 99  1  0
 99100  2  0
 99101  1  0
101102  2  3
101103  1  0
103104  2  0
103105  1  0
105106  1  0
106107  1  0
107108  1  0
 93  2  1  0
 14  9  1  0
 34 29  1  0
 54 49  2  0
 74 69  2  0
108 11  1  0
 88 31  1  0
  1109  1  0
  1110  1  0
  6111  1  0
  6112  1  0
  7113  1  0
  8114  1  0
  8115  1  0
 10116  1  0
 12117  1  0
 14118  1  0
 15119  1  0
 15120  1  0
 16121  1  0
 17122  1  0
 17123  1  0
 22124  1  0
 22125  1  0
 26126  1  0
 26127  1  0
 27128  1  0
 28129  1  0
 28130  1  0
 30131  1  0
 32132  1  0
 34133  1  0
 35134  1  0
 35135  1  0
 36136  1  0
 37137  1  0
 37138  1  0
 42139  1  0
 42140  1  0
 46141  1  0
 46142  1  0
 47143  1  0
 48144  1  0
 48145  1  0
 50146  1  0
 52147  1  0
 54148  1  0
 55149  1  0
 55150  1  0
 56151  1  0
 57152  1  0
 57153  1  0
 62154  1  0
 62155  1  0
 66156  1  0
 66157  1  0
 67158  1  0
 68159  1  0
 68160  1  0
 70161  1  0
 72162  1  0
 74163  1  0
 75164  1  0
 75165  1  0
 76166  1  0
 77167  1  0
 77168  1  0
 82169  1  0
 82170  1  0
 86171  1  0
 86172  1  0
 87173  1  0
 88174  1  0
 88175  1  0
 89176  1  0
 89177  1  0
 90178  1  0
 91179  1  0
 91180  1  0
 95181  1  0
 95182  1  0
 96183  1  0
 97184  1  0
 97185  1  0
102186  1  0
102187  1  0
106188  1  0
106189  1  0
107190  1  0
108191  1  0
108192  1  0
M  END
