
     RDKit          3D

162168  0  0  0  0  0  0  0  0999 V2000
   -4.3164   -7.0093    1.0535 O   0  0  0  0  0  0  0  0  0  0  0  0
   -3.4731   -6.4395    1.6859 C   0  0  0  0  0  0  0  0  0  0  0  0
   -3.8291   -5.3259    2.6086 C   0  0  0  0  0  0  0  0  0  0  0  0
   -3.7139   -4.0066    1.9138 C   0  0  0  0  0  0  0  0  0  0  0  0
   -2.7637   -4.0465    0.7171 C   0  0  0  0  0  0  0  0  0  0  0  0
   -2.8923   -2.8346    0.0658 N   0  0  0  0  0  0  0  0  0  0  0  0
   -3.5917   -2.4170   -1.0399 C   0  0  0  0  0  0  0  0  0  0  0  0
   -4.7428   -1.5225   -1.0754 C   0  0  0  0  0  0  0  0  0  0  0  0
   -5.0398   -0.4937   -2.0128 C   0  0  0  0  0  0  0  0  0  0  0  0
   -4.7930    0.8535   -1.6335 C   0  0  0  0  0  0  0  0  0  0  0  0
   -5.7435    0.8569   -0.5869 C   0  0  0  0  0  0  0  0  0  0  0  0
   -5.2914    0.1645    0.5596 C   0  0  0  0  0  0  0  0  0  0  0  0
   -5.5462   -1.1218    0.0239 C   0  0  0  0  0  0  0  0  0  0  0  0
   -4.2790    0.5391    1.5954 C   0  0  0  0  0  0  0  0  0  0  0  0
   -2.9761    0.0249    1.5106 N   0  0  0  0  0  0  0  0  0  0  0  0
   -1.8765    0.8963    1.5698 C   0  0  0  0  0  0  0  0  0  0  0  0
   -1.8364    1.1899    3.0828 C   0  0  0  0  0  0  0  0  0  0  0  0
   -1.5302   -0.0083    3.9066 C   0  0  0  0  0  0  0  0  0  0  0  0
   -2.6060   -0.3827    4.8644 C   0  0  0  0  0  0  0  0  0  0  0  0
   -2.3398   -1.3100    5.6260 O   0  0  0  0  0  0  0  0  0  0  0  0
   -0.6489    0.5937    1.1162 N   0  0  0  0  0  0  0  0  0  0  0  0
   -0.2664   -0.0573   -0.0499 C   0  0  0  0  0  0  0  0  0  0  0  0
    0.6525    0.5002   -1.0494 C   0  0  0  0  0  0  0  0  0  0  0  0
    0.3955    0.5123   -2.4661 C   0  0  0  0  0  0  0  0  0  0  0  0
    0.9746   -0.6940   -2.9863 C   0  0  0  0  0  0  0  0  0  0  0  0
    2.3628   -0.5621   -2.6912 C   0  0  0  0  0  0  0  0  0  0  0  0
    2.7363    0.7253   -2.1893 C   0  0  0  0  0  0  0  0  0  0  0  0
    2.0742    0.4749   -0.9406 C   0  0  0  0  0  0  0  0  0  0  0  0
    2.9479    2.0175   -2.9617 C   0  0  0  0  0  0  0  0  0  0  0  0
    2.9093    3.2340   -2.2586 N   0  0  0  0  0  0  0  0  0  0  0  0
    4.1042    3.7045   -1.6507 C   0  0  0  0  0  0  0  0  0  0  0  0
    5.3191    2.8712   -1.7385 C   0  0  0  0  0  0  0  0  0  0  0  0
    6.3040    3.2711   -2.8096 C   0  0  0  0  0  0  0  0  0  0  0  0
    6.1231    4.6550   -3.2907 C   0  0  0  0  0  0  0  0  0  0  0  0
    6.5592    4.9742   -4.3843 O   0  0  0  0  0  0  0  0  0  0  0  0
    3.7800    3.9715   -0.2456 N   0  0  0  0  0  0  0  0  0  0  0  0
    3.1218    5.2163   -0.0984 C   0  0  0  0  0  0  0  0  0  0  0  0
    2.3818    5.5862    1.1005 C   0  0  0  0  0  0  0  0  0  0  0  0
    1.0646    6.0990    1.2176 C   0  0  0  0  0  0  0  0  0  0  0  0
    0.0645    5.0908    1.1846 C   0  0  0  0  0  0  0  0  0  0  0  0
    0.3322    4.6398    2.5085 C   0  0  0  0  0  0  0  0  0  0  0  0
    1.5739    3.9939    2.7597 C   0  0  0  0  0  0  0  0  0  0  0  0
    2.4449    5.0579    2.4136 C   0  0  0  0  0  0  0  0  0  0  0  0
    1.8429    2.5755    2.6041 C   0  0  0  0  0  0  0  0  0  0  0  0
    3.0669    1.9600    3.0189 N   0  0  0  0  0  0  0  0  0  0  0  0
    2.9510    0.7482    3.7302 C   0  0  0  0  0  0  0  0  0  0  0  0
    3.7535    0.9085    5.0201 C   0  0  0  0  0  0  0  0  0  0  0  0
    4.7797    2.0273    4.8865 C   0  0  0  0  0  0  0  0  0  0  0  0
    5.2032    2.3981    6.2736 C   0  0  0  0  0  0  0  0  0  0  0  0
    4.3112    2.8022    7.0172 O   0  0  0  0  0  0  0  0  0  0  0  0
    3.3126   -0.4784    3.1557 N   0  0  0  0  0  0  0  0  0  0  0  0
    2.1971   -1.3559    2.8514 C   0  0  0  0  0  0  0  0  0  0  0  0
    2.3594   -2.7905    3.0718 C   0  0  0  0  0  0  0  0  0  0  0  0
    1.3910   -3.7191    3.5544 C   0  0  0  0  0  0  0  0  0  0  0  0
    0.5055   -4.3128    2.6130 C   0  0  0  0  0  0  0  0  0  0  0  0
    1.4943   -4.9902    1.8443 C   0  0  0  0  0  0  0  0  0  0  0  0
    2.4132   -4.2094    1.0996 C   0  0  0  0  0  0  0  0  0  0  0  0
    3.0830   -3.6868    2.2395 C   0  0  0  0  0  0  0  0  0  0  0  0
    2.1602   -3.5448   -0.2123 C   0  0  0  0  0  0  0  0  0  0  0  0
    2.1954   -4.4059   -1.3586 N   0  0  0  0  0  0  0  0  0  0  0  0
    1.1928   -4.1459   -2.3669 C   0  0  0  0  0  0  0  0  0  0  0  0
    1.8860   -4.3467   -3.6859 C   0  0  0  0  0  0  0  0  0  0  0  0
    1.2842   -5.5008   -4.4802 C   0  0  0  0  0  0  0  0  0  0  0  0
    0.6481   -5.0725   -5.7341 C   0  0  0  0  0  0  0  0  0  0  0  0
   -0.5600   -5.2328   -5.8980 O   0  0  0  0  0  0  0  0  0  0  0  0
    0.3881   -3.0253   -2.2043 N   0  0  0  0  0  0  0  0  0  0  0  0
    0.2866   -2.0049   -3.1695 C   0  0  0  0  0  0  0  0  0  0  0  0
   -0.7828   -3.7570    2.1287 C   0  0  0  0  0  0  0  0  0  0  0  0
   -1.4722   -4.4532    1.0936 N   0  0  0  0  0  0  0  0  0  0  0  0
   -0.4631    4.3206    0.0407 C   0  0  0  0  0  0  0  0  0  0  0  0
   -1.9062    4.4578   -0.1683 N   0  0  0  0  0  0  0  0  0  0  0  0
   -2.1898    3.5552   -1.2840 C   0  0  0  0  0  0  0  0  0  0  0  0
   -2.1694    4.4356   -2.5302 C   0  0  0  0  0  0  0  0  0  0  0  0
   -3.4458    5.2686   -2.5105 C   0  0  0  0  0  0  0  0  0  0  0  0
   -3.3544    6.3357   -1.4757 C   0  0  0  0  0  0  0  0  0  0  0  0
   -2.5255    7.2235   -1.5832 O   0  0  0  0  0  0  0  0  0  0  0  0
   -3.4715    2.9450   -1.2343 N   0  0  0  0  0  0  0  0  0  0  0  0
   -3.5558    1.6177   -1.8287 C   0  0  0  0  0  0  0  0  0  0  0  0
   -2.5380   -6.9608    1.9117 H   0  0  0  0  0  0  0  0  0  0  0  0
   -3.2606   -5.3767    3.5698 H   0  0  0  0  0  0  0  0  0  0  0  0
   -4.8935   -5.5074    2.9063 H   0  0  0  0  0  0  0  0  0  0  0  0
   -4.7171   -3.7926    1.4627 H   0  0  0  0  0  0  0  0  0  0  0  0
   -3.5115   -3.1523    2.5792 H   0  0  0  0  0  0  0  0  0  0  0  0
   -3.1818   -4.8608    0.0695 H   0  0  0  0  0  0  0  0  0  0  0  0
   -1.9550   -2.4544    0.1847 H   0  0  0  0  0  0  0  0  0  0  0  0
   -2.7181   -2.1799   -1.7205 H   0  0  0  0  0  0  0  0  0  0  0  0
   -3.8372   -3.4278   -1.4970 H   0  0  0  0  0  0  0  0  0  0  0  0
   -5.5232   -0.7222   -2.9935 H   0  0  0  0  0  0  0  0  0  0  0  0
   -6.6248    1.5325   -0.5700 H   0  0  0  0  0  0  0  0  0  0  0  0
   -6.3463   -1.7736    0.4415 H   0  0  0  0  0  0  0  0  0  0  0  0
   -4.6599    0.3763    2.6395 H   0  0  0  0  0  0  0  0  0  0  0  0
   -4.0601    1.6341    1.6992 H   0  0  0  0  0  0  0  0  0  0  0  0
   -2.8611   -0.7363    2.2281 H   0  0  0  0  0  0  0  0  0  0  0  0
   -2.2365    1.8778    1.2303 H   0  0  0  0  0  0  0  0  0  0  0  0
   -2.8747    1.5135    3.3490 H   0  0  0  0  0  0  0  0  0  0  0  0
   -1.2043    2.0567    3.3099 H   0  0  0  0  0  0  0  0  0  0  0  0
   -1.1587   -0.8845    3.3212 H   0  0  0  0  0  0  0  0  0  0  0  0
   -0.6563    0.2633    4.5557 H   0  0  0  0  0  0  0  0  0  0  0  0
   -3.3052    0.3895    5.1802 H   0  0  0  0  0  0  0  0  0  0  0  0
   -0.0852    0.2655    1.9076 H   0  0  0  0  0  0  0  0  0  0  0  0
   -1.3220   -0.2950   -0.3683 H   0  0  0  0  0  0  0  0  0  0  0  0
   -0.0909   -1.1262    0.2667 H   0  0  0  0  0  0  0  0  0  0  0  0
   -0.0624    1.3287   -3.0400 H   0  0  0  0  0  0  0  0  0  0  0  0
    3.1769   -1.2156   -3.0799 H   0  0  0  0  0  0  0  0  0  0  0  0
    2.6834    0.6237   -0.0234 H   0  0  0  0  0  0  0  0  0  0  0  0
    3.9766    2.0890   -3.3957 H   0  0  0  0  0  0  0  0  0  0  0  0
    2.2775    2.2152   -3.8070 H   0  0  0  0  0  0  0  0  0  0  0  0
    2.2997    3.9826   -2.6229 H   0  0  0  0  0  0  0  0  0  0  0  0
    4.3021    4.7215   -2.0760 H   0  0  0  0  0  0  0  0  0  0  0  0
    5.1509    1.7759   -1.7849 H   0  0  0  0  0  0  0  0  0  0  0  0
    5.8824    3.0060   -0.7760 H   0  0  0  0  0  0  0  0  0  0  0  0
    6.2763    2.6065   -3.7018 H   0  0  0  0  0  0  0  0  0  0  0  0
    7.3644    3.2039   -2.4526 H   0  0  0  0  0  0  0  0  0  0  0  0
    6.1503    5.4444   -2.5328 H   0  0  0  0  0  0  0  0  0  0  0  0
    3.2946    3.1273    0.0345 H   0  0  0  0  0  0  0  0  0  0  0  0
    3.9554    5.9478   -0.3035 H   0  0  0  0  0  0  0  0  0  0  0  0
    2.6073    5.2706   -1.0954 H   0  0  0  0  0  0  0  0  0  0  0  0
    0.8178    7.1768    1.1331 H   0  0  0  0  0  0  0  0  0  0  0  0
   -0.4344    4.7621    3.3078 H   0  0  0  0  0  0  0  0  0  0  0  0
    3.1469    5.4754    3.1697 H   0  0  0  0  0  0  0  0  0  0  0  0
    1.7951    2.1569    1.5628 H   0  0  0  0  0  0  0  0  0  0  0  0
    1.1657    1.8598    3.1469 H   0  0  0  0  0  0  0  0  0  0  0  0
    3.8290    1.9919    2.3192 H   0  0  0  0  0  0  0  0  0  0  0  0
    1.8866    0.6604    4.0726 H   0  0  0  0  0  0  0  0  0  0  0  0
    3.1217    1.1705    5.8797 H   0  0  0  0  0  0  0  0  0  0  0  0
    4.3204   -0.0108    5.2695 H   0  0  0  0  0  0  0  0  0  0  0  0
    5.6508    1.6975    4.2880 H   0  0  0  0  0  0  0  0  0  0  0  0
    4.3147    2.9449    4.4496 H   0  0  0  0  0  0  0  0  0  0  0  0
    6.1952    2.1443    6.6598 H   0  0  0  0  0  0  0  0  0  0  0  0
    4.0943   -0.9547    3.6349 H   0  0  0  0  0  0  0  0  0  0  0  0
    1.3895   -0.8145    3.4087 H   0  0  0  0  0  0  0  0  0  0  0  0
    1.9209   -0.9959    1.8261 H   0  0  0  0  0  0  0  0  0  0  0  0
    1.3367   -3.9649    4.6391 H   0  0  0  0  0  0  0  0  0  0  0  0
    1.4984   -6.1021    1.7855 H   0  0  0  0  0  0  0  0  0  0  0  0
    4.1564   -3.9192    2.4202 H   0  0  0  0  0  0  0  0  0  0  0  0
    1.2795   -2.9094   -0.3063 H   0  0  0  0  0  0  0  0  0  0  0  0
    2.9371   -2.8154   -0.5638 H   0  0  0  0  0  0  0  0  0  0  0  0
    2.3299   -5.4089   -1.1470 H   0  0  0  0  0  0  0  0  0  0  0  0
    0.5061   -5.0319   -2.2651 H   0  0  0  0  0  0  0  0  0  0  0  0
    2.9654   -4.6352   -3.5653 H   0  0  0  0  0  0  0  0  0  0  0  0
    1.9618   -3.4201   -4.2982 H   0  0  0  0  0  0  0  0  0  0  0  0
    0.5219   -5.9670   -3.8070 H   0  0  0  0  0  0  0  0  0  0  0  0
    2.0072   -6.2913   -4.7124 H   0  0  0  0  0  0  0  0  0  0  0  0
    1.2067   -4.7166   -6.5795 H   0  0  0  0  0  0  0  0  0  0  0  0
   -0.3374   -3.1402   -1.4997 H   0  0  0  0  0  0  0  0  0  0  0  0
   -0.8460   -1.9563   -3.1682 H   0  0  0  0  0  0  0  0  0  0  0  0
    0.2704   -2.3534   -4.2445 H   0  0  0  0  0  0  0  0  0  0  0  0
   -0.8032   -2.7137    1.8002 H   0  0  0  0  0  0  0  0  0  0  0  0
   -1.6092   -3.7866    2.8916 H   0  0  0  0  0  0  0  0  0  0  0  0
   -0.8900   -4.7775    0.3051 H   0  0  0  0  0  0  0  0  0  0  0  0
   -0.2632    3.2498   -0.0339 H   0  0  0  0  0  0  0  0  0  0  0  0
   -0.1266    4.5958   -0.9925 H   0  0  0  0  0  0  0  0  0  0  0  0
   -2.4439    4.2058    0.6842 H   0  0  0  0  0  0  0  0  0  0  0  0
   -1.4206    2.7962   -1.4261 H   0  0  0  0  0  0  0  0  0  0  0  0
   -1.3360    5.1508   -2.5293 H   0  0  0  0  0  0  0  0  0  0  0  0
   -2.1781    3.8331   -3.4560 H   0  0  0  0  0  0  0  0  0  0  0  0
   -4.3319    4.6547   -2.2816 H   0  0  0  0  0  0  0  0  0  0  0  0
   -3.6146    5.7271   -3.5165 H   0  0  0  0  0  0  0  0  0  0  0  0
   -3.9617    6.3384   -0.5678 H   0  0  0  0  0  0  0  0  0  0  0  0
   -3.9597    3.0056   -0.3250 H   0  0  0  0  0  0  0  0  0  0  0  0
   -3.3575    1.9410   -2.8863 H   0  0  0  0  0  0  0  0  0  0  0  0
   -2.6094    1.2078   -1.5069 H   0  0  0  0  0  0  0  0  0  0  0  0
  1  2  2  0
  2  3  1  0
  3  4  1  0
  4  5  1  0
  5  6  1  0
  6  7  1  0
  7  8  1  0
  8  9  2  0
  9 10  1  0
 10 11  2  0
 11 12  1  0
 12 13  2  0
 12 14  1  0
 14 15  1  0
 15 16  1  0
 16 17  1  0
 17 18  1  0
 18 19  1  0
 19 20  2  0
 16 21  1  0
 21 22  1  0
 22 23  1  0
 23 24  2  0
 24 25  1  0
 25 26  2  0
 26 27  1  0
 27 28  2  0
 27 29  1  0
 29 30  1  0
 30 31  1  0
 31 32  1  0
 32 33  1  0
 33 34  1  0
 34 35  2  0
 31 36  1  0
 36 37  1  0
 37 38  1  0
 38 39  1  0
 39 40  2  0
 40 41  1  0
 41 42  2  0
 42 43  1  0
 42 44  1  0
 44 45  1  0
 45 46  1  0
 46 47  1  0
 47 48  1  0
 48 49  1  0
 49 50  2  0
 46 51  1  0
 51 52  1  0
 52 53  1  0
 53 54  1  0
 54 55  2  0
 55 56  1  0
 56 57  2  0
 57 58  1  0
 57 59  1  0
 59 60  1  0
 60 61  1  0
 61 62  1  0
 62 63  1  0
 63 64  1  0
 64 65  2  0
 61 66  1  0
 66 67  1  0
 55 68  1  0
 68 69  1  0
 40 70  1  0
 70 71  1  0
 71 72  1  0
 72 73  1  0
 73 74  1  0
 74 75  1  0
 75 76  2  0
 72 77  1  0
 77 78  1  0
 69  5  1  0
 13  8  1  0
 28 23  1  0
 43 38  2  0
 58 53  2  0
 78 10  1  0
 67 25  1  0
  2 79  1  0
  3 80  1  0
  3 81  1  0
  4 82  1  0
  4 83  1  0
  5 84  1  0
  6 85  1  0
  7 86  1  0
  7 87  1  0
  9 88  1  0
 11 89  1  0
 13 90  1  0
 14 91  1  0
 14 92  1  0
 15 93  1  0
 16 94  1  0
 17 95  1  0
 17 96  1  0
 18 97  1  0
 18 98  1  0
 19 99  1  0
 21100  1  0
 22101  1  0
 22102  1  0
 24103  1  0
 26104  1  0
 28105  1  0
 29106  1  0
 29107  1  0
 30108  1  0
 31109  1  0
 32110  1  0
 32111  1  0
 33112  1  0
 33113  1  0
 34114  1  0
 36115  1  0
 37116  1  0
 37117  1  0
 39118  1  0
 41119  1  0
 43120  1  0
 44121  1  0
 44122  1  0
 45123  1  0
 46124  1  0
 47125  1  0
 47126  1  0
 48127  1  0
 48128  1  0
 49129  1  0
 51130  1  0
 52131  1  0
 52132  1  0
 54133  1  0
 56134  1  0
 58135  1  0
 59136  1  0
 59137  1  0
 60138  1  0
 61139  1  0
 62140  1  0
 62141  1  0
 63142  1  0
 63143  1  0
 64144  1  0
 66145  1  0
 67146  1  0
 67147  1  0
 68148  1  0
 68149  1  0
 69150  1  0
 70151  1  0
 70152  1  0
 71153  1  0
 72154  1  0
 73155  1  0
 73156  1  0
 74157  1  0
 74158  1  0
 75159  1  0
 77160  1  0
 78161  1  0
 78162  1  0
M  END
