
     RDKit          3D

204222  0  0  0  0  0  0  0  0999 V2000
    7.1510    0.7740    3.4291 O   0  0  0  0  0  0  0  0  0  0  0  0
    6.1239    0.1831    3.4400 C   0  0  0  0  0  0  0  0  0  0  0  0
    5.0161    0.5820    2.6850 O   0  0  0  0  0  0  0  0  0  0  0  0
    4.0109   -0.4380    2.7364 C   0  0  0  0  0  0  0  0  0  0  0  0
    4.2606   -1.3229    1.6957 N   0  0  0  0  0  0  0  0  0  0  0  0
    5.2137   -1.1312    0.6357 C   0  0  0  0  0  0  0  0  0  0  0  0
    4.9001   -1.3766   -0.7541 C   0  0  0  0  0  0  0  0  0  0  0  0
    5.6260   -1.9564   -1.8279 C   0  0  0  0  0  0  0  0  0  0  0  0
    4.8409   -2.3170   -2.9891 C   0  0  0  0  0  0  0  0  0  0  0  0
    4.2529   -3.3993   -2.2559 C   0  0  0  0  0  0  0  0  0  0  0  0
    3.2725   -2.9034   -1.3527 C   0  0  0  0  0  0  0  0  0  0  0  0
    3.5531   -1.5005   -1.2273 C   0  0  0  0  0  0  0  0  0  0  0  0
    2.4513   -3.6114   -0.4029 C   0  0  0  0  0  0  0  0  0  0  0  0
    1.0004   -3.4385   -0.5824 N   0  0  0  0  0  0  0  0  0  0  0  0
    0.4734   -2.2421    0.0210 C   0  0  0  0  0  0  0  0  0  0  0  0
    0.3333   -1.1360   -0.7282 N   0  0  0  0  0  0  0  0  0  0  0  0
    0.5774    0.1996   -0.1885 C   0  0  0  0  0  0  0  0  0  0  0  0
    0.3658    1.3632   -0.9874 C   0  0  0  0  0  0  0  0  0  0  0  0
   -0.5449    2.4419   -0.7130 C   0  0  0  0  0  0  0  0  0  0  0  0
    0.2416    3.5675   -0.2875 C   0  0  0  0  0  0  0  0  0  0  0  0
    1.1674    3.7793   -1.3468 C   0  0  0  0  0  0  0  0  0  0  0  0
    0.7962    3.1158   -2.5634 C   0  0  0  0  0  0  0  0  0  0  0  0
    1.2453    1.8859   -1.9729 C   0  0  0  0  0  0  0  0  0  0  0  0
   -0.2552    3.4281   -3.6197 C   0  0  0  0  0  0  0  0  0  0  0  0
   -1.0244    2.3564   -4.1033 N   0  0  0  0  0  0  0  0  0  0  0  0
   -2.3748    2.4842   -4.3866 C   0  0  0  0  0  0  0  0  0  0  0  0
   -2.6997    1.8056   -5.5726 N   0  0  0  0  0  0  0  0  0  0  0  0
   -2.9837    0.3786   -5.5172 C   0  0  0  0  0  0  0  0  0  0  0  0
   -3.0996   -0.2627   -4.2361 C   0  0  0  0  0  0  0  0  0  0  0  0
   -1.9539   -0.6616   -3.4671 C   0  0  0  0  0  0  0  0  0  0  0  0
   -1.6111   -2.0313   -3.7764 C   0  0  0  0  0  0  0  0  0  0  0  0
   -2.7851   -2.7645   -3.4411 C   0  0  0  0  0  0  0  0  0  0  0  0
   -3.7160   -2.0001   -2.6545 C   0  0  0  0  0  0  0  0  0  0  0  0
   -4.0788   -1.1879   -3.7751 C   0  0  0  0  0  0  0  0  0  0  0  0
   -3.8538   -1.7177   -1.1917 C   0  0  0  0  0  0  0  0  0  0  0  0
   -3.4079   -0.5707   -0.5258 N   0  0  0  0  0  0  0  0  0  0  0  0
   -3.7359   -0.6999    0.9000 C   0  0  0  0  0  0  0  0  0  0  0  0
   -2.6665   -0.2442    1.7523 N   0  0  0  0  0  0  0  0  0  0  0  0
   -2.9648    0.0465    3.0730 C   0  0  0  0  0  0  0  0  0  0  0  0
   -1.9290    0.0601    4.1710 C   0  0  0  0  0  0  0  0  0  0  0  0
   -0.6744   -0.6250    4.3002 C   0  0  0  0  0  0  0  0  0  0  0  0
    0.4464    0.0131    3.7054 C   0  0  0  0  0  0  0  0  0  0  0  0
   -0.1272    1.2563    3.2883 C   0  0  0  0  0  0  0  0  0  0  0  0
   -0.5871    1.9957    4.4326 C   0  0  0  0  0  0  0  0  0  0  0  0
   -1.4828    1.0985    5.0715 C   0  0  0  0  0  0  0  0  0  0  0  0
    0.1988    3.0856    4.9255 C   0  0  0  0  0  0  0  0  0  0  0  0
    0.2977    4.2858    4.0624 N   0  0  0  0  0  0  0  0  0  0  0  0
    1.3894    4.3406    3.1969 C   0  0  0  0  0  0  0  0  0  0  0  0
    1.4117    3.7469    1.9377 N   0  0  0  0  0  0  0  0  0  0  0  0
    0.3449    4.1548    1.0202 C   0  0  0  0  0  0  0  0  0  0  0  0
    1.7690    5.7104    3.0477 O   0  0  0  0  0  0  0  0  0  0  0  0
    3.1402    5.6820    2.7743 C   0  0  0  0  0  0  0  0  0  0  0  0
    3.8326    6.7427    2.8350 O   0  0  0  0  0  0  0  0  0  0  0  0
    3.6282    4.3888    3.2909 C   0  0  0  0  0  0  0  0  0  0  0  0
    2.5080    3.8704    3.9074 O   0  0  0  0  0  0  0  0  0  0  0  0
    4.7232    4.5585    4.2973 C   0  0  0  0  0  0  0  0  0  0  0  0
    6.0434    4.2411    4.0024 C   0  0  0  0  0  0  0  0  0  0  0  0
    6.9877    4.0310    4.9907 C   0  0  0  0  0  0  0  0  0  0  0  0
    6.5613    3.9005    6.3015 C   0  0  0  0  0  0  0  0  0  0  0  0
    5.3266    4.4443    6.6152 C   0  0  0  0  0  0  0  0  0  0  0  0
    4.3672    4.6098    5.6365 C   0  0  0  0  0  0  0  0  0  0  0  0
    1.8653   -0.2056    3.9719 C   0  0  0  0  0  0  0  0  0  0  0  0
    2.8091    0.2144    2.9368 N   0  0  0  0  0  0  0  0  0  0  0  0
   -4.2317   -1.9645    1.2358 O   0  0  0  0  0  0  0  0  0  0  0  0
   -5.5305   -1.8687    1.7522 C   0  0  0  0  0  0  0  0  0  0  0  0
   -6.1315   -2.6528    2.5221 O   0  0  0  0  0  0  0  0  0  0  0  0
   -5.9292   -0.4887    1.3532 C   0  0  0  0  0  0  0  0  0  0  0  0
   -4.7794    0.2192    1.1048 O   0  0  0  0  0  0  0  0  0  0  0  0
   -6.8282    0.1479    2.3393 C   0  0  0  0  0  0  0  0  0  0  0  0
   -6.6173    1.4242    2.8485 C   0  0  0  0  0  0  0  0  0  0  0  0
   -7.6830    2.3018    3.0124 C   0  0  0  0  0  0  0  0  0  0  0  0
   -8.9954    1.8612    2.8926 C   0  0  0  0  0  0  0  0  0  0  0  0
   -9.1588    0.4820    2.9362 C   0  0  0  0  0  0  0  0  0  0  0  0
   -8.1381   -0.3089    2.4222 C   0  0  0  0  0  0  0  0  0  0  0  0
   -0.5764   -2.3551   -4.7310 C   0  0  0  0  0  0  0  0  0  0  0  0
    0.7841   -2.5380   -4.2260 N   0  0  0  0  0  0  0  0  0  0  0  0
    1.8581   -1.9997   -4.9884 C   0  0  0  0  0  0  0  0  0  0  0  0
    2.8774   -1.3397   -4.3147 N   0  0  0  0  0  0  0  0  0  0  0  0
    4.2108   -1.5357   -4.1576 C   0  0  0  0  0  0  0  0  0  0  0  0
    2.4092   -3.0630   -5.7638 O   0  0  0  0  0  0  0  0  0  0  0  0
    2.8816   -2.5113   -6.9597 C   0  0  0  0  0  0  0  0  0  0  0  0
    3.6194   -3.0992   -7.7755 O   0  0  0  0  0  0  0  0  0  0  0  0
    2.2162   -1.2108   -7.0649 C   0  0  0  0  0  0  0  0  0  0  0  0
    1.4117   -1.0898   -5.9643 O   0  0  0  0  0  0  0  0  0  0  0  0
    3.1110   -0.0496   -7.1268 C   0  0  0  0  0  0  0  0  0  0  0  0
    4.3392   -0.0107   -7.7277 C   0  0  0  0  0  0  0  0  0  0  0  0
    5.2254    0.9578   -7.2697 C   0  0  0  0  0  0  0  0  0  0  0  0
    4.8040    1.9877   -6.4372 C   0  0  0  0  0  0  0  0  0  0  0  0
    3.4383    2.2349   -6.3699 C   0  0  0  0  0  0  0  0  0  0  0  0
    2.6058    1.1626   -6.6692 C   0  0  0  0  0  0  0  0  0  0  0  0
   -2.6216    3.8753   -4.6171 O   0  0  0  0  0  0  0  0  0  0  0  0
   -3.9348    4.1413   -4.2093 C   0  0  0  0  0  0  0  0  0  0  0  0
   -4.6235    5.1038   -4.6546 O   0  0  0  0  0  0  0  0  0  0  0  0
   -4.4535    2.7510   -4.0056 C   0  0  0  0  0  0  0  0  0  0  0  0
   -3.3111    2.1795   -3.4240 O   0  0  0  0  0  0  0  0  0  0  0  0
   -5.6582    2.6830   -3.1970 C   0  0  0  0  0  0  0  0  0  0  0  0
   -5.7294    2.5445   -1.8370 C   0  0  0  0  0  0  0  0  0  0  0  0
   -6.9455    2.2228   -1.2465 C   0  0  0  0  0  0  0  0  0  0  0  0
   -8.0002    1.8217   -2.0572 C   0  0  0  0  0  0  0  0  0  0  0  0
   -8.0760    2.4369   -3.3007 C   0  0  0  0  0  0  0  0  0  0  0  0
   -6.8717    2.8499   -3.8571 C   0  0  0  0  0  0  0  0  0  0  0  0
    1.0396   -2.3000    1.2652 O   0  0  0  0  0  0  0  0  0  0  0  0
    0.5140   -3.3924    1.9724 C   0  0  0  0  0  0  0  0  0  0  0  0
    0.9838   -3.7182    3.0955 O   0  0  0  0  0  0  0  0  0  0  0  0
   -0.8139   -3.5318    1.3869 C   0  0  0  0  0  0  0  0  0  0  0  0
   -0.8079   -2.7519    0.2969 O   0  0  0  0  0  0  0  0  0  0  0  0
   -1.2387   -4.9388    1.1766 C   0  0  0  0  0  0  0  0  0  0  0  0
   -1.3061   -5.7373    2.3126 C   0  0  0  0  0  0  0  0  0  0  0  0
   -2.0739   -6.8953    2.3497 C   0  0  0  0  0  0  0  0  0  0  0  0
   -3.2100   -6.9215    1.5503 C   0  0  0  0  0  0  0  0  0  0  0  0
   -3.1574   -6.1903    0.3726 C   0  0  0  0  0  0  0  0  0  0  0  0
   -2.1224   -5.2877    0.1624 C   0  0  0  0  0  0  0  0  0  0  0  0
    4.2931   -1.1085    3.9435 O   0  0  0  0  0  0  0  0  0  0  0  0
    5.5951   -0.8976    4.2786 C   0  0  0  0  0  0  0  0  0  0  0  0
    6.3766   -2.1417    4.2460 C   0  0  0  0  0  0  0  0  0  0  0  0
    5.7238   -3.3158    4.6001 C   0  0  0  0  0  0  0  0  0  0  0  0
    6.1680   -4.5622    4.1893 C   0  0  0  0  0  0  0  0  0  0  0  0
    7.2670   -4.6009    3.3435 C   0  0  0  0  0  0  0  0  0  0  0  0
    8.0387   -3.4609    3.2147 C   0  0  0  0  0  0  0  0  0  0  0  0
    7.6650   -2.2589    3.8014 C   0  0  0  0  0  0  0  0  0  0  0  0
    4.1643   -2.3014    2.0227 H   0  0  0  0  0  0  0  0  0  0  0  0
    6.0235   -1.7084    1.1622 H   0  0  0  0  0  0  0  0  0  0  0  0
    5.5661   -0.0814    0.8622 H   0  0  0  0  0  0  0  0  0  0  0  0
    6.7258   -1.8905   -1.9713 H   0  0  0  0  0  0  0  0  0  0  0  0
    4.3462   -4.4272   -2.6596 H   0  0  0  0  0  0  0  0  0  0  0  0
    2.9682   -0.6396   -1.5900 H   0  0  0  0  0  0  0  0  0  0  0  0
    2.7172   -3.5927    0.6870 H   0  0  0  0  0  0  0  0  0  0  0  0
    2.3292   -4.7261   -0.3946 H   0  0  0  0  0  0  0  0  0  0  0  0
    0.6545   -3.7100   -1.4819 H   0  0  0  0  0  0  0  0  0  0  0  0
    0.5464   -1.0811   -1.7167 H   0  0  0  0  0  0  0  0  0  0  0  0
   -0.0882   -0.0819    0.6452 H   0  0  0  0  0  0  0  0  0  0  0  0
    1.4954    0.1043    0.4537 H   0  0  0  0  0  0  0  0  0  0  0  0
   -1.6176    2.4543   -0.9644 H   0  0  0  0  0  0  0  0  0  0  0  0
    1.9102    4.6023   -1.4498 H   0  0  0  0  0  0  0  0  0  0  0  0
    2.0654    1.3646   -2.5115 H   0  0  0  0  0  0  0  0  0  0  0  0
   -1.0353    4.1485   -3.3566 H   0  0  0  0  0  0  0  0  0  0  0  0
    0.2060    3.8630   -4.5477 H   0  0  0  0  0  0  0  0  0  0  0  0
   -0.4718    1.8187   -4.8214 H   0  0  0  0  0  0  0  0  0  0  0  0
   -2.0267    2.0685   -6.3093 H   0  0  0  0  0  0  0  0  0  0  0  0
   -3.8302    0.4865   -6.2447 H   0  0  0  0  0  0  0  0  0  0  0  0
   -2.2910   -0.0437   -6.3051 H   0  0  0  0  0  0  0  0  0  0  0  0
   -1.4879   -0.0561   -2.6774 H   0  0  0  0  0  0  0  0  0  0  0  0
   -2.8896   -3.8688   -3.4546 H   0  0  0  0  0  0  0  0  0  0  0  0
   -5.1564   -1.1213   -4.0453 H   0  0  0  0  0  0  0  0  0  0  0  0
   -3.4063   -2.4988   -0.5236 H   0  0  0  0  0  0  0  0  0  0  0  0
   -4.8993   -1.8945   -0.8086 H   0  0  0  0  0  0  0  0  0  0  0  0
   -3.6797    0.3483   -0.9098 H   0  0  0  0  0  0  0  0  0  0  0  0
   -2.2986    0.5772    1.1968 H   0  0  0  0  0  0  0  0  0  0  0  0
   -3.8402   -0.6094    3.3405 H   0  0  0  0  0  0  0  0  0  0  0  0
   -3.5078    1.0148    2.9159 H   0  0  0  0  0  0  0  0  0  0  0  0
   -0.7101   -1.6862    4.6312 H   0  0  0  0  0  0  0  0  0  0  0  0
   -0.3775    1.5181    2.2448 H   0  0  0  0  0  0  0  0  0  0  0  0
   -2.0723    1.2923    5.9916 H   0  0  0  0  0  0  0  0  0  0  0  0
    1.2539    2.9296    5.2829 H   0  0  0  0  0  0  0  0  0  0  0  0
   -0.1240    3.7347    5.7842 H   0  0  0  0  0  0  0  0  0  0  0  0
   -0.6278    4.5728    3.7074 H   0  0  0  0  0  0  0  0  0  0  0  0
    2.3128    3.9454    1.4772 H   0  0  0  0  0  0  0  0  0  0  0  0
   -0.4505    3.9090    1.7901 H   0  0  0  0  0  0  0  0  0  0  0  0
    0.1098    5.2539    1.1420 H   0  0  0  0  0  0  0  0  0  0  0  0
    4.0513    3.7294    2.5047 H   0  0  0  0  0  0  0  0  0  0  0  0
    6.2155    3.8255    3.0078 H   0  0  0  0  0  0  0  0  0  0  0  0
    7.9182    3.5726    4.6787 H   0  0  0  0  0  0  0  0  0  0  0  0
    7.1767    3.4428    7.0673 H   0  0  0  0  0  0  0  0  0  0  0  0
    5.1071    4.7734    7.6133 H   0  0  0  0  0  0  0  0  0  0  0  0
    3.4443    5.1267    5.8697 H   0  0  0  0  0  0  0  0  0  0  0  0
    2.2931   -1.2165    4.0263 H   0  0  0  0  0  0  0  0  0  0  0  0
    2.3221    0.3017    4.8654 H   0  0  0  0  0  0  0  0  0  0  0  0
    2.8239    1.2310    2.7885 H   0  0  0  0  0  0  0  0  0  0  0  0
   -6.4887   -0.5588    0.3862 H   0  0  0  0  0  0  0  0  0  0  0  0
   -5.6945    1.9005    2.5104 H   0  0  0  0  0  0  0  0  0  0  0  0
   -7.5171    3.3771    3.1038 H   0  0  0  0  0  0  0  0  0  0  0  0
   -9.8146    2.5364    2.6392 H   0  0  0  0  0  0  0  0  0  0  0  0
  -10.1799    0.1315    2.9579 H   0  0  0  0  0  0  0  0  0  0  0  0
   -8.3493   -1.3601    2.2641 H   0  0  0  0  0  0  0  0  0  0  0  0
   -0.5744   -3.2801   -5.3671 H   0  0  0  0  0  0  0  0  0  0  0  0
   -0.4355   -1.7185   -5.6527 H   0  0  0  0  0  0  0  0  0  0  0  0
    0.9507   -3.4853   -3.8500 H   0  0  0  0  0  0  0  0  0  0  0  0
    2.4480   -0.4405   -3.9653 H   0  0  0  0  0  0  0  0  0  0  0  0
    4.6801   -1.8754   -5.1211 H   0  0  0  0  0  0  0  0  0  0  0  0
    4.5728   -0.4686   -4.1910 H   0  0  0  0  0  0  0  0  0  0  0  0
    1.6263   -1.2205   -8.0164 H   0  0  0  0  0  0  0  0  0  0  0  0
    4.6806   -0.8918   -8.2323 H   0  0  0  0  0  0  0  0  0  0  0  0
    6.2892    0.8561   -7.3852 H   0  0  0  0  0  0  0  0  0  0  0  0
    5.4983    2.6724   -5.9559 H   0  0  0  0  0  0  0  0  0  0  0  0
    3.1095    3.0140   -5.6795 H   0  0  0  0  0  0  0  0  0  0  0  0
    1.5944    1.2141   -6.2613 H   0  0  0  0  0  0  0  0  0  0  0  0
   -4.6657    2.3669   -5.0113 H   0  0  0  0  0  0  0  0  0  0  0  0
   -4.8027    2.4319   -1.3010 H   0  0  0  0  0  0  0  0  0  0  0  0
   -7.0301    2.0279   -0.1971 H   0  0  0  0  0  0  0  0  0  0  0  0
   -8.7382    1.0890   -1.7264 H   0  0  0  0  0  0  0  0  0  0  0  0
   -8.9317    2.1499   -3.9147 H   0  0  0  0  0  0  0  0  0  0  0  0
   -6.9013    3.0437   -4.9309 H   0  0  0  0  0  0  0  0  0  0  0  0
   -1.5417   -3.1053    2.1249 H   0  0  0  0  0  0  0  0  0  0  0  0
   -0.7515   -5.4604    3.2111 H   0  0  0  0  0  0  0  0  0  0  0  0
   -2.1586   -7.4158    3.3051 H   0  0  0  0  0  0  0  0  0  0  0  0
   -4.0747   -7.5435    1.7890 H   0  0  0  0  0  0  0  0  0  0  0  0
   -3.9593   -6.3227   -0.3275 H   0  0  0  0  0  0  0  0  0  0  0  0
   -2.1452   -4.6682   -0.7129 H   0  0  0  0  0  0  0  0  0  0  0  0
    5.6193   -0.5300    5.3362 H   0  0  0  0  0  0  0  0  0  0  0  0
    4.8155   -3.2450    5.1967 H   0  0  0  0  0  0  0  0  0  0  0  0
    5.5073   -5.4301    4.1482 H   0  0  0  0  0  0  0  0  0  0  0  0
    7.3510   -5.3744    2.5832 H   0  0  0  0  0  0  0  0  0  0  0  0
    9.0859   -3.6105    2.9476 H   0  0  0  0  0  0  0  0  0  0  0  0
    8.2466   -1.3627    3.7211 H   0  0  0  0  0  0  0  0  0  0  0  0
  1  2  2  0
  2  3  1  0
  3  4  1  0
  4  5  1  0
  5  6  1  0
  6  7  1  0
  7  8  1  0
  8  9  2  0
  9 10  1  0
 10 11  2  0
 11 12  1  0
 11 13  1  0
 13 14  1  0
 14 15  1  0
 15 16  1  0
 16 17  1  0
 17 18  1  0
 18 19  1  0
 19 20  2  0
 20 21  1  0
 21 22  2  0
 22 23  1  0
 22 24  1  0
 24 25  1  0
 25 26  1  0
 26 27  1  0
 27 28  1  0
 28 29  1  0
 29 30  2  0
 30 31  1  0
 31 32  2  0
 32 33  1  0
 33 34  2  0
 33 35  1  0
 35 36  1  0
 36 37  1  0
 37 38  1  0
 38 39  1  0
 39 40  1  0
 40 41  2  0
 41 42  1  0
 42 43  2  0
 43 44  1  0
 44 45  2  0
 44 46  1  0
 46 47  1  0
 47 48  1  0
 48 49  1  0
 49 50  1  0
 48 51  1  0
 51 52  1  0
 52 53  2  0
 52 54  1  0
 54 55  1  0
 54 56  1  0
 56 57  2  0
 57 58  1  0
 58 59  2  0
 59 60  1  0
 60 61  2  0
 42 62  1  0
 62 63  1  0
 37 64  1  0
 64 65  1  0
 65 66  2  0
 65 67  1  0
 67 68  1  0
 67 69  1  0
 69 70  2  0
 70 71  1  0
 71 72  2  0
 72 73  1  0
 73 74  2  0
 31 75  1  0
 75 76  1  0
 76 77  1  0
 77 78  1  0
 78 79  1  0
 77 80  1  0
 80 81  1  0
 81 82  2  0
 81 83  1  0
 83 84  1  0
 83 85  1  0
 85 86  2  0
 86 87  1  0
 87 88  2  0
 88 89  1  0
 89 90  2  0
 26 91  1  0
 91 92  1  0
 92 93  2  0
 92 94  1  0
 94 95  1  0
 94 96  1  0
 96 97  2  0
 97 98  1  0
 98 99  2  0
 99100  1  0
100101  2  0
 15102  1  0
102103  1  0
103104  2  0
103105  1  0
105106  1  0
105107  1  0
107108  2  0
108109  1  0
109110  2  0
110111  1  0
111112  2  0
  4113  1  0
113114  1  0
114115  1  0
115116  2  0
116117  1  0
117118  2  0
118119  1  0
119120  2  0
114  2  1  0
120115  1  0
 63  4  1  0
 74 69  1  0
 84 77  1  0
 90 85  1  0
101 96  1  0
112107  1  0
 12  7  2  0
106 15  1  0
 79  9  1  0
 23 18  2  0
 95 26  1  0
 50 20  1  0
 61 56  1  0
 34 29  1  0
 68 37  1  0
 45 40  1  0
 55 48  1  0
  5121  1  0
  6122  1  0
  6123  1  0
  8124  1  0
 10125  1  0
 12126  1  0
 13127  1  0
 13128  1  0
 14129  1  0
 16130  1  0
 17131  1  0
 17132  1  0
 19133  1  0
 21134  1  0
 23135  1  0
 24136  1  0
 24137  1  0
 25138  1  0
 27139  1  0
 28140  1  0
 28141  1  0
 30142  1  0
 32143  1  0
 34144  1  0
 35145  1  0
 35146  1  0
 36147  1  0
 38148  1  0
 39149  1  0
 39150  1  0
 41151  1  0
 43152  1  0
 45153  1  0
 46154  1  0
 46155  1  0
 47156  1  0
 49157  1  0
 50158  1  0
 50159  1  0
 54160  1  0
 57161  1  0
 58162  1  0
 59163  1  0
 60164  1  0
 61165  1  0
 62166  1  0
 62167  1  0
 63168  1  0
 67169  1  0
 70170  1  0
 71171  1  0
 72172  1  0
 73173  1  0
 74174  1  0
 75175  1  0
 75176  1  0
 76177  1  0
 78178  1  0
 79179  1  0
 79180  1  0
 83181  1  0
 86182  1  0
 87183  1  0
 88184  1  0
 89185  1  0
 90186  1  0
 94187  1  0
 97188  1  0
 98189  1  0
 99190  1  0
100191  1  0
101192  1  0
105193  1  0
108194  1  0
109195  1  0
110196  1  0
111197  1  0
112198  1  0
114199  1  0
116200  1  0
117201  1  0
118202  1  0
119203  1  0
120204  1  0
M  END
