
     RDKit          3D

174180  0  0  0  0  0  0  0  0999 V2000
   -0.9078    0.5864   -5.6879 O   0  0  0  0  0  0  0  0  0  0  0  0
   -0.7913    0.9545   -5.8289 C   0  0  0  0  0  0  0  0  0  0  0  0
   -1.0631    1.7291   -4.5775 C   0  0  0  0  0  0  0  0  0  0  0  0
   -2.5391    1.6849   -4.2840 C   0  0  0  0  0  0  0  0  0  0  0  0
   -2.7451    1.7391   -2.8610 N   0  0  0  0  0  0  0  0  0  0  0  0
   -3.3844    0.4738   -2.5020 C   0  0  0  0  0  0  0  0  0  0  0  0
   -3.8520    0.4481   -1.0541 C   0  0  0  0  0  0  0  0  0  0  0  0
   -3.3095   -0.2405    0.0904 C   0  0  0  0  0  0  0  0  0  0  0  0
   -3.7832   -1.5748    0.2848 C   0  0  0  0  0  0  0  0  0  0  0  0
   -4.8158   -1.6987   -0.7085 C   0  0  0  0  0  0  0  0  0  0  0  0
   -5.8481   -0.7521   -0.3787 C   0  0  0  0  0  0  0  0  0  0  0  0
   -5.1810    0.5053   -0.4975 C   0  0  0  0  0  0  0  0  0  0  0  0
   -7.0792   -1.0085    0.4090 C   0  0  0  0  0  0  0  0  0  0  0  0
   -7.0352   -0.7859    1.8530 N   0  0  0  0  0  0  0  0  0  0  0  0
   -7.8252    0.3854    2.2263 C   0  0  0  0  0  0  0  0  0  0  0  0
   -7.0129    1.3442    3.0877 C   0  0  0  0  0  0  0  0  0  0  0  0
   -6.9456    2.7041    2.4768 C   0  0  0  0  0  0  0  0  0  0  0  0
   -7.5884    3.2057    3.3939 O   0  0  0  0  0  0  0  0  0  0  0  0
   -6.5987    4.0159    1.8510 C   0  0  0  0  0  0  0  0  0  0  0  0
   -5.1188    4.1693    1.6911 C   0  0  0  0  0  0  0  0  0  0  0  0
   -5.2146    5.3786    1.3522 O   0  0  0  0  0  0  0  0  0  0  0  0
   -3.7303    4.1917    2.0235 N   0  0  0  0  0  0  0  0  0  0  0  0
   -2.3198    4.2044    2.4278 C   0  0  0  0  0  0  0  0  0  0  0  0
   -1.6594    5.5066    2.1750 C   0  0  0  0  0  0  0  0  0  0  0  0
   -0.7311    5.8700    1.1547 C   0  0  0  0  0  0  0  0  0  0  0  0
    0.6435    5.6617    1.4674 C   0  0  0  0  0  0  0  0  0  0  0  0
    0.7327    6.6830    2.4582 C   0  0  0  0  0  0  0  0  0  0  0  0
    0.0019    6.4455    3.6576 C   0  0  0  0  0  0  0  0  0  0  0  0
   -1.3057    6.5315    3.0998 C   0  0  0  0  0  0  0  0  0  0  0  0
    0.4664    5.8019    4.9002 C   0  0  0  0  0  0  0  0  0  0  0  0
   -0.3933    4.8381    5.5562 N   0  0  0  0  0  0  0  0  0  0  0  0
   -1.4763    4.3104    6.3414 C   0  0  0  0  0  0  0  0  0  0  0  0
   -0.7308    3.7840    7.1837 O   0  0  0  0  0  0  0  0  0  0  0  0
   -2.7263    3.6587    6.8309 C   0  0  0  0  0  0  0  0  0  0  0  0
   -2.5942    2.1956    6.6122 C   0  0  0  0  0  0  0  0  0  0  0  0
   -2.9770    1.8348    7.7124 O   0  0  0  0  0  0  0  0  0  0  0  0
   -2.6490    0.8200    6.0638 C   0  0  0  0  0  0  0  0  0  0  0  0
   -1.4954    0.0353    6.6246 C   0  0  0  0  0  0  0  0  0  0  0  0
   -0.2195    0.4230    6.0898 N   0  0  0  0  0  0  0  0  0  0  0  0
   -0.0924   -0.2788    4.8130 C   0  0  0  0  0  0  0  0  0  0  0  0
    1.2748   -0.0801    4.1753 C   0  0  0  0  0  0  0  0  0  0  0  0
    2.3901   -0.9803    4.0519 C   0  0  0  0  0  0  0  0  0  0  0  0
    2.3686   -1.8507    2.9161 C   0  0  0  0  0  0  0  0  0  0  0  0
    1.2682   -1.3344    2.1416 C   0  0  0  0  0  0  0  0  0  0  0  0
    1.5220    0.0339    1.7614 C   0  0  0  0  0  0  0  0  0  0  0  0
    1.6731    0.6862    3.0178 C   0  0  0  0  0  0  0  0  0  0  0  0
    2.0792    0.4521    0.4631 C   0  0  0  0  0  0  0  0  0  0  0  0
    1.4307   -0.1364   -0.7186 N   0  0  0  0  0  0  0  0  0  0  0  0
    0.7714   -1.1850   -1.4457 C   0  0  0  0  0  0  0  0  0  0  0  0
    1.1629   -0.7034   -2.5262 O   0  0  0  0  0  0  0  0  0  0  0  0
   -0.2031   -2.0772   -2.0887 C   0  0  0  0  0  0  0  0  0  0  0  0
    0.4587   -3.3781   -2.4178 C   0  0  0  0  0  0  0  0  0  0  0  0
   -0.5897   -3.9836   -2.1924 O   0  0  0  0  0  0  0  0  0  0  0  0
    1.0028   -4.5564   -3.1648 C   0  0  0  0  0  0  0  0  0  0  0  0
    2.4866   -4.6274   -3.1649 C   0  0  0  0  0  0  0  0  0  0  0  0
    3.1854   -3.4595   -3.5711 N   0  0  0  0  0  0  0  0  0  0  0  0
    3.0066   -3.2805   -5.0188 C   0  0  0  0  0  0  0  0  0  0  0  0
    3.4797   -2.0287   -5.6215 C   0  0  0  0  0  0  0  0  0  0  0  0
    3.8325   -0.8114   -4.9436 C   0  0  0  0  0  0  0  0  0  0  0  0
    5.2682   -0.7903   -4.8375 C   0  0  0  0  0  0  0  0  0  0  0  0
    5.6992   -0.7669   -6.1977 C   0  0  0  0  0  0  0  0  0  0  0  0
    4.6497   -0.5458   -7.1629 C   0  0  0  0  0  0  0  0  0  0  0  0
    4.0615   -1.8356   -6.9118 C   0  0  0  0  0  0  0  0  0  0  0  0
    4.0081    0.7319   -7.6962 C   0  0  0  0  0  0  0  0  0  0  0  0
    2.6284    0.9608   -7.4194 N   0  0  0  0  0  0  0  0  0  0  0  0
    1.2051    0.8622   -7.2801 C   0  0  0  0  0  0  0  0  0  0  0  0
    1.1725    1.5526   -6.2168 O   0  0  0  0  0  0  0  0  0  0  0  0
   -0.2400    0.4983   -7.1411 C   0  0  0  0  0  0  0  0  0  0  0  0
    6.0745   -1.1414   -3.6575 C   0  0  0  0  0  0  0  0  0  0  0  0
    6.6460    0.0178   -2.9496 N   0  0  0  0  0  0  0  0  0  0  0  0
    5.4982    0.9014   -2.7489 C   0  0  0  0  0  0  0  0  0  0  0  0
    5.7443    1.9434   -1.7002 C   0  0  0  0  0  0  0  0  0  0  0  0
    4.8767    3.1260   -2.0142 C   0  0  0  0  0  0  0  0  0  0  0  0
    5.3571    3.2419   -3.1394 O   0  0  0  0  0  0  0  0  0  0  0  0
    4.1184    4.4078   -2.1558 C   0  0  0  0  0  0  0  0  0  0  0  0
    3.2676    4.6925   -0.9836 C   0  0  0  0  0  0  0  0  0  0  0  0
    4.0659    5.4983   -0.4458 O   0  0  0  0  0  0  0  0  0  0  0  0
    2.4196    4.5724    0.1613 N   0  0  0  0  0  0  0  0  0  0  0  0
    1.4846    4.4439    1.2836 C   0  0  0  0  0  0  0  0  0  0  0  0
    3.4209   -2.7082    2.3458 C   0  0  0  0  0  0  0  0  0  0  0  0
    3.0491   -4.1385    2.2378 N   0  0  0  0  0  0  0  0  0  0  0  0
    2.1694   -5.1507    1.7179 C   0  0  0  0  0  0  0  0  0  0  0  0
    3.0652   -5.7605    1.0588 O   0  0  0  0  0  0  0  0  0  0  0  0
    1.0852   -5.9566    1.0687 C   0  0  0  0  0  0  0  0  0  0  0  0
   -0.2535   -5.5467    1.6052 C   0  0  0  0  0  0  0  0  0  0  0  0
    0.2487   -5.2056    2.6748 O   0  0  0  0  0  0  0  0  0  0  0  0
   -1.6373   -5.3808    2.1118 C   0  0  0  0  0  0  0  0  0  0  0  0
   -2.5050   -4.5667    1.1574 C   0  0  0  0  0  0  0  0  0  0  0  0
   -2.3683   -3.2027    1.5255 N   0  0  0  0  0  0  0  0  0  0  0  0
   -3.5986   -2.4147    1.4935 C   0  0  0  0  0  0  0  0  0  0  0  0
   -0.7227    2.7904   -4.6656 H   0  0  0  0  0  0  0  0  0  0  0  0
   -0.5404    1.3157   -3.7021 H   0  0  0  0  0  0  0  0  0  0  0  0
   -3.0655    0.8567   -4.7783 H   0  0  0  0  0  0  0  0  0  0  0  0
   -2.9683    2.6310   -4.7016 H   0  0  0  0  0  0  0  0  0  0  0  0
   -1.8692    1.8802   -2.3137 H   0  0  0  0  0  0  0  0  0  0  0  0
   -4.1398    0.3187   -3.2786 H   0  0  0  0  0  0  0  0  0  0  0  0
   -2.6773   -0.2973   -2.8194 H   0  0  0  0  0  0  0  0  0  0  0  0
   -2.4114    0.2050    0.5690 H   0  0  0  0  0  0  0  0  0  0  0  0
   -4.8072   -2.3791   -1.5703 H   0  0  0  0  0  0  0  0  0  0  0  0
   -5.6637    1.5044   -0.4484 H   0  0  0  0  0  0  0  0  0  0  0  0
   -7.3875   -2.0847    0.5197 H   0  0  0  0  0  0  0  0  0  0  0  0
   -8.0556   -0.7039   -0.0489 H   0  0  0  0  0  0  0  0  0  0  0  0
   -6.0582   -0.5638    2.1158 H   0  0  0  0  0  0  0  0  0  0  0  0
   -8.6949    0.0835    2.8323 H   0  0  0  0  0  0  0  0  0  0  0  0
   -8.1904    0.9446    1.3531 H   0  0  0  0  0  0  0  0  0  0  0  0
   -5.9799    0.9181    3.1538 H   0  0  0  0  0  0  0  0  0  0  0  0
   -7.3883    1.3798    4.1312 H   0  0  0  0  0  0  0  0  0  0  0  0
   -7.0181    4.0214    0.8284 H   0  0  0  0  0  0  0  0  0  0  0  0
   -7.0368    4.8475    2.4409 H   0  0  0  0  0  0  0  0  0  0  0  0
   -3.6344    5.1661    1.6330 H   0  0  0  0  0  0  0  0  0  0  0  0
   -2.3460    3.7837    3.4404 H   0  0  0  0  0  0  0  0  0  0  0  0
   -1.9243    3.2907    1.9179 H   0  0  0  0  0  0  0  0  0  0  0  0
   -1.0616    6.1653    0.1369 H   0  0  0  0  0  0  0  0  0  0  0  0
    1.4122    7.5532    2.3374 H   0  0  0  0  0  0  0  0  0  0  0  0
   -2.0352    7.2985    3.4343 H   0  0  0  0  0  0  0  0  0  0  0  0
    1.3755    5.1486    4.8702 H   0  0  0  0  0  0  0  0  0  0  0  0
    0.7434    6.5323    5.7082 H   0  0  0  0  0  0  0  0  0  0  0  0
    0.2497    4.7884    6.3738 H   0  0  0  0  0  0  0  0  0  0  0  0
   -2.7830    3.8411    7.9141 H   0  0  0  0  0  0  0  0  0  0  0  0
   -3.6016    4.0925    6.3237 H   0  0  0  0  0  0  0  0  0  0  0  0
   -3.5802    0.3345    6.4502 H   0  0  0  0  0  0  0  0  0  0  0  0
   -2.7227    0.7869    4.9672 H   0  0  0  0  0  0  0  0  0  0  0  0
   -1.4940    0.1639    7.7159 H   0  0  0  0  0  0  0  0  0  0  0  0
   -1.6713   -1.0341    6.3480 H   0  0  0  0  0  0  0  0  0  0  0  0
    0.5629    0.2157    6.7345 H   0  0  0  0  0  0  0  0  0  0  0  0
   -0.9669    0.0454    4.2410 H   0  0  0  0  0  0  0  0  0  0  0  0
   -0.4081   -1.3043    5.0211 H   0  0  0  0  0  0  0  0  0  0  0  0
    3.0326   -1.1367    4.9420 H   0  0  0  0  0  0  0  0  0  0  0  0
    0.3209   -1.8686    1.9550 H   0  0  0  0  0  0  0  0  0  0  0  0
    1.8204    1.7767    3.1778 H   0  0  0  0  0  0  0  0  0  0  0  0
    1.9008    1.4641    0.0760 H   0  0  0  0  0  0  0  0  0  0  0  0
    3.1638    0.2630    0.2567 H   0  0  0  0  0  0  0  0  0  0  0  0
    2.2362   -0.1122   -1.3491 H   0  0  0  0  0  0  0  0  0  0  0  0
   -0.6106   -1.5662   -2.9713 H   0  0  0  0  0  0  0  0  0  0  0  0
   -1.0722   -2.2446   -1.4027 H   0  0  0  0  0  0  0  0  0  0  0  0
    0.6420   -5.4573   -2.6039 H   0  0  0  0  0  0  0  0  0  0  0  0
    0.5344   -4.6595   -4.1735 H   0  0  0  0  0  0  0  0  0  0  0  0
    2.7792   -5.4582   -3.8386 H   0  0  0  0  0  0  0  0  0  0  0  0
    2.8308   -4.9401   -2.1461 H   0  0  0  0  0  0  0  0  0  0  0  0
    4.1875   -3.5935   -3.3178 H   0  0  0  0  0  0  0  0  0  0  0  0
    3.4502   -4.2584   -5.2332 H   0  0  0  0  0  0  0  0  0  0  0  0
    1.8963   -3.4522   -5.0794 H   0  0  0  0  0  0  0  0  0  0  0  0
    3.1408   -0.0324   -4.5933 H   0  0  0  0  0  0  0  0  0  0  0  0
    6.7433   -0.6323   -6.5521 H   0  0  0  0  0  0  0  0  0  0  0  0
    3.8878   -2.4865   -7.7967 H   0  0  0  0  0  0  0  0  0  0  0  0
    4.1511    0.8488   -8.8027 H   0  0  0  0  0  0  0  0  0  0  0  0
    4.4345    1.6704   -7.3307 H   0  0  0  0  0  0  0  0  0  0  0  0
    2.6991    1.5873   -6.6046 H   0  0  0  0  0  0  0  0  0  0  0  0
   -0.7773    1.0062   -7.9576 H   0  0  0  0  0  0  0  0  0  0  0  0
   -0.3961   -0.5978   -7.1962 H   0  0  0  0  0  0  0  0  0  0  0  0
    6.7974   -1.9965   -3.6761 H   0  0  0  0  0  0  0  0  0  0  0  0
    5.5435   -1.5809   -2.7658 H   0  0  0  0  0  0  0  0  0  0  0  0
    7.3539    0.5035   -3.5258 H   0  0  0  0  0  0  0  0  0  0  0  0
    5.1929    1.2992   -3.7265 H   0  0  0  0  0  0  0  0  0  0  0  0
    4.6794    0.2284   -2.3892 H   0  0  0  0  0  0  0  0  0  0  0  0
    6.8018    2.2402   -1.7477 H   0  0  0  0  0  0  0  0  0  0  0  0
    5.4152    1.5919   -0.7043 H   0  0  0  0  0  0  0  0  0  0  0  0
    4.8815    5.2215   -2.2451 H   0  0  0  0  0  0  0  0  0  0  0  0
    3.5669    4.4017   -3.1059 H   0  0  0  0  0  0  0  0  0  0  0  0
    2.9065    5.3748    0.6399 H   0  0  0  0  0  0  0  0  0  0  0  0
    0.9977    3.4751    1.0929 H   0  0  0  0  0  0  0  0  0  0  0  0
    2.1440    4.1184    2.1083 H   0  0  0  0  0  0  0  0  0  0  0  0
    3.8979   -2.3838    1.3762 H   0  0  0  0  0  0  0  0  0  0  0  0
    4.3725   -2.9043    2.8394 H   0  0  0  0  0  0  0  0  0  0  0  0
    3.7409   -4.2675    1.4839 H   0  0  0  0  0  0  0  0  0  0  0  0
    1.0388   -5.7891   -0.0234 H   0  0  0  0  0  0  0  0  0  0  0  0
    1.3117   -7.0146    1.2563 H   0  0  0  0  0  0  0  0  0  0  0  0
   -2.0851   -6.3761    2.3251 H   0  0  0  0  0  0  0  0  0  0  0  0
   -1.6417   -4.8459    3.0955 H   0  0  0  0  0  0  0  0  0  0  0  0
   -2.1202   -4.7472    0.1433 H   0  0  0  0  0  0  0  0  0  0  0  0
   -3.5413   -4.9719    1.2795 H   0  0  0  0  0  0  0  0  0  0  0  0
   -1.8296   -3.0194    2.3898 H   0  0  0  0  0  0  0  0  0  0  0  0
   -4.3217   -3.2630    1.6439 H   0  0  0  0  0  0  0  0  0  0  0  0
   -3.8498   -1.9840    2.4991 H   0  0  0  0  0  0  0  0  0  0  0  0
  1  2  2  0
  2  3  1  0
  3  4  1  0
  4  5  1  0
  5  6  1  0
  6  7  1  0
  7  8  2  0
  8  9  1  0
  9 10  2  0
 10 11  1  0
 11 12  2  0
 11 13  1  0
 13 14  1  0
 14 15  1  0
 15 16  1  0
 16 17  1  0
 17 18  2  0
 17 19  1  0
 19 20  1  0
 20 21  2  0
 20 22  1  0
 22 23  1  0
 23 24  1  0
 24 25  1  0
 25 26  2  0
 26 27  1  0
 27 28  2  0
 28 29  1  0
 28 30  1  0
 30 31  1  0
 31 32  1  0
 32 33  2  0
 32 34  1  0
 34 35  1  0
 35 36  2  0
 35 37  1  0
 37 38  1  0
 38 39  1  0
 39 40  1  0
 40 41  1  0
 41 42  2  0
 42 43  1  0
 43 44  2  0
 44 45  1  0
 45 46  2  0
 45 47  1  0
 47 48  1  0
 48 49  1  0
 49 50  2  0
 49 51  1  0
 51 52  1  0
 52 53  2  0
 52 54  1  0
 54 55  1  0
 55 56  1  0
 56 57  1  0
 57 58  1  0
 58 59  1  0
 59 60  2  0
 60 61  1  0
 61 62  2  0
 62 63  1  0
 62 64  1  0
 64 65  1  0
 65 66  1  0
 66 67  2  0
 66 68  1  0
 60 69  1  0
 69 70  1  0
 70 71  1  0
 71 72  1  0
 72 73  1  0
 73 74  2  0
 73 75  1  0
 75 76  1  0
 76 77  2  0
 76 78  1  0
 78 79  1  0
 43 80  1  0
 80 81  1  0
 81 82  1  0
 82 83  2  0
 82 84  1  0
 84 85  1  0
 85 86  2  0
 85 87  1  0
 87 88  1  0
 88 89  1  0
 89 90  1  0
 68  2  1  0
 12  7  1  0
 29 24  2  0
 46 41  1  0
 63 58  2  0
 90  9  1  0
 79 26  1  0
  3 91  1  0
  3 92  1  0
  4 93  1  0
  4 94  1  0
  5 95  1  0
  6 96  1  0
  6 97  1  0
  8 98  1  0
 10 99  1  0
 12100  1  0
 13101  1  0
 13102  1  0
 14103  1  0
 15104  1  0
 15105  1  0
 16106  1  0
 16107  1  0
 19108  1  0
 19109  1  0
 22110  1  0
 23111  1  0
 23112  1  0
 25113  1  0
 27114  1  0
 29115  1  0
 30116  1  0
 30117  1  0
 31118  1  0
 34119  1  0
 34120  1  0
 37121  1  0
 37122  1  0
 38123  1  0
 38124  1  0
 39125  1  0
 40126  1  0
 40127  1  0
 42128  1  0
 44129  1  0
 46130  1  0
 47131  1  0
 47132  1  0
 48133  1  0
 51134  1  0
 51135  1  0
 54136  1  0
 54137  1  0
 55138  1  0
 55139  1  0
 56140  1  0
 57141  1  0
 57142  1  0
 59143  1  0
 61144  1  0
 63145  1  0
 64146  1  0
 64147  1  0
 65148  1  0
 68149  1  0
 68150  1  0
 69151  1  0
 69152  1  0
 70153  1  0
 71154  1  0
 71155  1  0
 72156  1  0
 72157  1  0
 75158  1  0
 75159  1  0
 78160  1  0
 79161  1  0
 79162  1  0
 80163  1  0
 80164  1  0
 81165  1  0
 84166  1  0
 84167  1  0
 87168  1  0
 87169  1  0
 88170  1  0
 88171  1  0
 89172  1  0
 90173  1  0
 90174  1  0
M  END
