
     RDKit          3D

240258  0  0  0  0  0  0  0  0999 V2000
   -0.9978    0.8993   -6.7029 O   0  0  0  0  0  0  0  0  0  0  0  0
   -0.9647    0.1212   -7.7096 C   0  0  0  0  0  0  0  0  0  0  0  0
   -2.2849    0.3827   -8.1017 O   0  0  0  0  0  0  0  0  0  0  0  0
   -3.6940    0.5205   -8.2865 C   0  0  0  0  0  0  0  0  0  0  0  0
   -4.1761    1.8071   -7.8669 N   0  0  0  0  0  0  0  0  0  0  0  0
   -4.1420    2.0223   -6.4450 C   0  0  0  0  0  0  0  0  0  0  0  0
   -5.4414    2.6714   -5.9346 C   0  0  0  0  0  0  0  0  0  0  0  0
   -6.2769    2.3275   -4.8249 C   0  0  0  0  0  0  0  0  0  0  0  0
   -6.0688    3.1282   -3.6600 C   0  0  0  0  0  0  0  0  0  0  0  0
   -6.4899    4.4058   -4.1557 C   0  0  0  0  0  0  0  0  0  0  0  0
   -5.6983    4.9481   -5.2181 C   0  0  0  0  0  0  0  0  0  0  0  0
   -5.9369    3.9767   -6.2386 C   0  0  0  0  0  0  0  0  0  0  0  0
   -4.6119    6.0364   -5.1991 C   0  0  0  0  0  0  0  0  0  0  0  0
   -3.2917    5.4984   -5.0536 N   0  0  0  0  0  0  0  0  0  0  0  0
   -2.4233    6.5079   -4.5080 C   0  0  0  0  0  0  0  0  0  0  0  0
   -1.9993    6.0329   -3.2271 O   0  0  0  0  0  0  0  0  0  0  0  0
   -1.6352    5.3317   -2.0654 C   0  0  0  0  0  0  0  0  0  0  0  0
   -2.8044    5.4560   -1.5804 O   0  0  0  0  0  0  0  0  0  0  0  0
   -1.4821    4.0362   -1.3686 C   0  0  0  0  0  0  0  0  0  0  0  0
   -2.1266    4.8583   -0.4416 C   0  0  0  0  0  0  0  0  0  0  0  0
   -2.7065    3.9639    0.4563 C   0  0  0  0  0  0  0  0  0  0  0  0
   -2.4396    2.6845    0.0804 N   0  0  0  0  0  0  0  0  0  0  0  0
   -1.4940    2.7201   -0.8968 C   0  0  0  0  0  0  0  0  0  0  0  0
   -1.8369    1.3583   -0.8873 N   0  0  0  0  0  0  0  0  0  0  0  0
   -1.9011   -0.0803   -1.1373 C   0  0  0  0  0  0  0  0  0  0  0  0
   -2.1574   -0.8337    0.1768 C   0  0  0  0  0  0  0  0  0  0  0  0
   -1.3382   -0.8649    1.3465 C   0  0  0  0  0  0  0  0  0  0  0  0
   -0.6379   -2.0781    1.6302 C   0  0  0  0  0  0  0  0  0  0  0  0
   -1.7281   -2.9814    1.7935 C   0  0  0  0  0  0  0  0  0  0  0  0
   -2.5006   -3.1829    0.6071 C   0  0  0  0  0  0  0  0  0  0  0  0
   -3.0817   -1.8928    0.4536 C   0  0  0  0  0  0  0  0  0  0  0  0
   -2.4680   -4.3400   -0.4065 C   0  0  0  0  0  0  0  0  0  0  0  0
   -2.0891   -5.5888    0.2562 N   0  0  0  0  0  0  0  0  0  0  0  0
   -1.3247   -6.3153    1.2482 C   0  0  0  0  0  0  0  0  0  0  0  0
   -2.5667   -6.8494    1.3792 N   0  0  0  0  0  0  0  0  0  0  0  0
   -2.6991   -7.2863    2.6592 C   0  0  0  0  0  0  0  0  0  0  0  0
   -1.6602   -6.8039    3.4548 C   0  0  0  0  0  0  0  0  0  0  0  0
   -0.7061   -6.4488    2.4971 C   0  0  0  0  0  0  0  0  0  0  0  0
    0.0050   -6.2893    3.7766 C   0  0  0  0  0  0  0  0  0  0  0  0
   -0.5096   -7.3897    4.1436 O   0  0  0  0  0  0  0  0  0  0  0  0
    0.6776   -6.0011    4.9709 O   0  0  0  0  0  0  0  0  0  0  0  0
    1.1012   -5.1919    6.0460 C   0  0  0  0  0  0  0  0  0  0  0  0
    0.3656   -3.9761    6.2045 N   0  0  0  0  0  0  0  0  0  0  0  0
    1.1867   -2.8250    6.5586 C   0  0  0  0  0  0  0  0  0  0  0  0
    0.8401   -1.6174    5.6730 C   0  0  0  0  0  0  0  0  0  0  0  0
   -0.3849   -0.8840    5.6276 C   0  0  0  0  0  0  0  0  0  0  0  0
   -0.2788    0.5364    5.7466 C   0  0  0  0  0  0  0  0  0  0  0  0
    0.9055    0.6622    6.5268 C   0  0  0  0  0  0  0  0  0  0  0  0
    2.1021    0.4113    5.7810 C   0  0  0  0  0  0  0  0  0  0  0  0
    1.7224   -0.7198    4.9975 C   0  0  0  0  0  0  0  0  0  0  0  0
    3.4478    1.1288    5.7909 C   0  0  0  0  0  0  0  0  0  0  0  0
    3.8615    1.5427    4.4551 N   0  0  0  0  0  0  0  0  0  0  0  0
    4.1897    1.7092    3.0687 C   0  0  0  0  0  0  0  0  0  0  0  0
    3.9763    2.9905    3.4646 N   0  0  0  0  0  0  0  0  0  0  0  0
    4.3750    3.8144    2.4632 C   0  0  0  0  0  0  0  0  0  0  0  0
    4.7262    3.0843    1.3320 C   0  0  0  0  0  0  0  0  0  0  0  0
    4.6977    1.7581    1.7681 C   0  0  0  0  0  0  0  0  0  0  0  0
    5.4155    1.7093    0.4798 C   0  0  0  0  0  0  0  0  0  0  0  0
    6.0475    2.7622    0.8104 O   0  0  0  0  0  0  0  0  0  0  0  0
    6.2294    1.3700   -0.6081 O   0  0  0  0  0  0  0  0  0  0  0  0
    7.0222    1.1737   -1.7773 C   0  0  0  0  0  0  0  0  0  0  0  0
    6.7518   -0.1434   -2.2807 N   0  0  0  0  0  0  0  0  0  0  0  0
    7.2358   -0.3400   -3.6471 C   0  0  0  0  0  0  0  0  0  0  0  0
    6.0592   -0.2442   -4.6319 C   0  0  0  0  0  0  0  0  0  0  0  0
    5.1213   -1.2752   -4.9267 C   0  0  0  0  0  0  0  0  0  0  0  0
    5.4279   -2.0005   -6.1144 C   0  0  0  0  0  0  0  0  0  0  0  0
    6.1465   -1.0318   -6.8856 C   0  0  0  0  0  0  0  0  0  0  0  0
    5.5509    0.2660   -6.9373 C   0  0  0  0  0  0  0  0  0  0  0  0
    5.7265    0.7482   -5.6081 C   0  0  0  0  0  0  0  0  0  0  0  0
    4.6978    0.8487   -8.0560 C   0  0  0  0  0  0  0  0  0  0  0  0
    3.2865    0.6922   -7.8467 N   0  0  0  0  0  0  0  0  0  0  0  0
    1.8791    0.4613   -7.7299 C   0  0  0  0  0  0  0  0  0  0  0  0
    2.1793    0.9311   -6.4896 N   0  0  0  0  0  0  0  0  0  0  0  0
    1.2663    0.4158   -5.6277 C   0  0  0  0  0  0  0  0  0  0  0  0
    0.1258    0.0539   -6.3401 C   0  0  0  0  0  0  0  0  0  0  0  0
    0.5116    0.1680   -7.6790 C   0  0  0  0  0  0  0  0  0  0  0  0
    1.1532    0.8011   -4.2147 C   0  0  0  0  0  0  0  0  0  0  0  0
    1.2535    2.1610   -3.9454 C   0  0  0  0  0  0  0  0  0  0  0  0
    1.8965    2.6413   -2.8119 C   0  0  0  0  0  0  0  0  0  0  0  0
    2.2059    1.7070   -1.8479 C   0  0  0  0  0  0  0  0  0  0  0  0
    2.1314    0.3447   -2.0735 C   0  0  0  0  0  0  0  0  0  0  0  0
    1.6289   -0.0912   -3.2931 C   0  0  0  0  0  0  0  0  0  0  0  0
    4.9840   -3.4093   -6.5009 C   0  0  0  0  0  0  0  0  0  0  0  0
    3.6011   -3.4393   -6.9300 N   0  0  0  0  0  0  0  0  0  0  0  0
    2.8484   -4.5309   -6.3788 C   0  0  0  0  0  0  0  0  0  0  0  0
    2.4963   -4.2859   -5.0175 O   0  0  0  0  0  0  0  0  0  0  0  0
    2.3335   -4.3389   -3.6274 C   0  0  0  0  0  0  0  0  0  0  0  0
    3.5530   -4.1256   -3.3347 O   0  0  0  0  0  0  0  0  0  0  0  0
    1.9621   -4.0140   -2.2356 C   0  0  0  0  0  0  0  0  0  0  0  0
    3.1139   -4.7979   -2.1242 C   0  0  0  0  0  0  0  0  0  0  0  0
    3.5431   -4.6031   -0.8146 C   0  0  0  0  0  0  0  0  0  0  0  0
    2.8009   -3.6131   -0.2588 N   0  0  0  0  0  0  0  0  0  0  0  0
    1.6627   -3.4597   -0.9868 C   0  0  0  0  0  0  0  0  0  0  0  0
    1.2511   -2.9660    0.2936 N   0  0  0  0  0  0  0  0  0  0  0  0
    0.8592   -2.3977    1.5545 C   0  0  0  0  0  0  0  0  0  0  0  0
    4.7449   -5.1795   -0.1988 C   0  0  0  0  0  0  0  0  0  0  0  0
    4.8147   -5.1817    1.1898 C   0  0  0  0  0  0  0  0  0  0  0  0
    5.9945   -4.8931    1.8652 C   0  0  0  0  0  0  0  0  0  0  0  0
    7.0610   -4.3797    1.1381 C   0  0  0  0  0  0  0  0  0  0  0  0
    7.1421   -4.7929   -0.1858 C   0  0  0  0  0  0  0  0  0  0  0  0
    5.9788   -5.1537   -0.8385 C   0  0  0  0  0  0  0  0  0  0  0  0
    4.3194    5.2722    2.4989 C   0  0  0  0  0  0  0  0  0  0  0  0
    3.2230    5.9601    1.9962 C   0  0  0  0  0  0  0  0  0  0  0  0
    2.8929    7.2119    2.4915 C   0  0  0  0  0  0  0  0  0  0  0  0
    3.5728    7.7294    3.5839 C   0  0  0  0  0  0  0  0  0  0  0  0
    4.8447    7.2216    3.8151 C   0  0  0  0  0  0  0  0  0  0  0  0
    5.2365    6.0373    3.2035 C   0  0  0  0  0  0  0  0  0  0  0  0
   -0.9617    1.6390    4.9299 C   0  0  0  0  0  0  0  0  0  0  0  0
   -2.3240    1.3282    4.6377 N   0  0  0  0  0  0  0  0  0  0  0  0
   -3.5072    0.9989    3.9131 C   0  0  0  0  0  0  0  0  0  0  0  0
   -3.9839    1.1222    5.1784 N   0  0  0  0  0  0  0  0  0  0  0  0
   -5.3401    1.1127    5.1182 C   0  0  0  0  0  0  0  0  0  0  0  0
   -5.7770    1.0617    3.7969 C   0  0  0  0  0  0  0  0  0  0  0  0
   -4.5995    1.0584    3.0455 C   0  0  0  0  0  0  0  0  0  0  0  0
   -5.6589    1.3682    2.0668 C   0  0  0  0  0  0  0  0  0  0  0  0
   -6.2078    2.1388    2.9169 O   0  0  0  0  0  0  0  0  0  0  0  0
   -6.1536    2.0116    0.9275 O   0  0  0  0  0  0  0  0  0  0  0  0
   -6.4930    2.7912   -0.2173 C   0  0  0  0  0  0  0  0  0  0  0  0
   -6.3081    2.0788   -1.4507 N   0  0  0  0  0  0  0  0  0  0  0  0
   -5.3617    2.7353   -2.3526 C   0  0  0  0  0  0  0  0  0  0  0  0
   -6.2375    0.7992    6.2392 C   0  0  0  0  0  0  0  0  0  0  0  0
   -6.0395    1.2596    7.5119 C   0  0  0  0  0  0  0  0  0  0  0  0
   -6.5003    0.5208    8.5908 C   0  0  0  0  0  0  0  0  0  0  0  0
   -6.8567   -0.8038    8.4143 C   0  0  0  0  0  0  0  0  0  0  0  0
   -7.3508   -1.1498    7.1700 C   0  0  0  0  0  0  0  0  0  0  0  0
   -6.9935   -0.3566    6.0876 C   0  0  0  0  0  0  0  0  0  0  0  0
   -4.0128   -7.6872    3.1776 C   0  0  0  0  0  0  0  0  0  0  0  0
   -4.6967   -6.8529    4.0529 C   0  0  0  0  0  0  0  0  0  0  0  0
   -6.0684   -6.6587    3.9464 C   0  0  0  0  0  0  0  0  0  0  0  0
   -6.6884   -7.1618    2.8093 C   0  0  0  0  0  0  0  0  0  0  0  0
   -6.1806   -8.3548    2.3102 C   0  0  0  0  0  0  0  0  0  0  0  0
   -4.8077   -8.5384    2.4211 C   0  0  0  0  0  0  0  0  0  0  0  0
   -3.1607    4.4409    1.7706 C   0  0  0  0  0  0  0  0  0  0  0  0
   -4.1887    5.3729    1.8450 C   0  0  0  0  0  0  0  0  0  0  0  0
   -4.2899    6.2213    2.9400 C   0  0  0  0  0  0  0  0  0  0  0  0
   -3.4268    6.0922    4.0202 C   0  0  0  0  0  0  0  0  0  0  0  0
   -2.3506    5.2335    3.9183 C   0  0  0  0  0  0  0  0  0  0  0  0
   -2.1503    4.6017    2.7117 C   0  0  0  0  0  0  0  0  0  0  0  0
   -4.2509   -0.2427   -7.6859 H   0  0  0  0  0  0  0  0  0  0  0  0
   -3.9135    0.4257   -9.3693 H   0  0  0  0  0  0  0  0  0  0  0  0
   -5.0780    2.0291   -8.3165 H   0  0  0  0  0  0  0  0  0  0  0  0
   -3.2465    2.5783   -6.0950 H   0  0  0  0  0  0  0  0  0  0  0  0
   -3.9967    1.0164   -6.0437 H   0  0  0  0  0  0  0  0  0  0  0  0
   -6.9200    1.4414   -4.8342 H   0  0  0  0  0  0  0  0  0  0  0  0
   -7.2747    4.9901   -3.6625 H   0  0  0  0  0  0  0  0  0  0  0  0
   -6.3696    4.2333   -7.2114 H   0  0  0  0  0  0  0  0  0  0  0  0
   -4.7216    6.7179   -6.0823 H   0  0  0  0  0  0  0  0  0  0  0  0
   -4.7489    6.7428   -4.3748 H   0  0  0  0  0  0  0  0  0  0  0  0
   -2.9766    5.1694   -5.9930 H   0  0  0  0  0  0  0  0  0  0  0  0
   -1.4958    6.5565   -5.1273 H   0  0  0  0  0  0  0  0  0  0  0  0
   -2.9041    7.4881   -4.3738 H   0  0  0  0  0  0  0  0  0  0  0  0
   -1.5376    5.7331   -0.1321 H   0  0  0  0  0  0  0  0  0  0  0  0
   -2.2553    2.0059    0.8700 H   0  0  0  0  0  0  0  0  0  0  0  0
   -2.8149    1.4779   -0.5865 H   0  0  0  0  0  0  0  0  0  0  0  0
   -1.0421   -0.4600   -1.6874 H   0  0  0  0  0  0  0  0  0  0  0  0
   -2.7454   -0.1493   -1.8292 H   0  0  0  0  0  0  0  0  0  0  0  0
   -1.2282    0.0202    1.9907 H   0  0  0  0  0  0  0  0  0  0  0  0
   -1.8990   -3.5582    2.7085 H   0  0  0  0  0  0  0  0  0  0  0  0
   -4.1653   -1.7253    0.4690 H   0  0  0  0  0  0  0  0  0  0  0  0
   -3.4851   -4.5998   -0.7567 H   0  0  0  0  0  0  0  0  0  0  0  0
   -1.7370   -4.1809   -1.2038 H   0  0  0  0  0  0  0  0  0  0  0  0
   -3.0084   -5.6394    0.7705 H   0  0  0  0  0  0  0  0  0  0  0  0
   -2.9803   -7.2714    0.5042 H   0  0  0  0  0  0  0  0  0  0  0  0
   -1.8981   -6.0816    4.2536 H   0  0  0  0  0  0  0  0  0  0  0  0
    0.9826   -5.7901    6.9746 H   0  0  0  0  0  0  0  0  0  0  0  0
    2.1867   -4.9863    5.9225 H   0  0  0  0  0  0  0  0  0  0  0  0
   -0.4913   -4.0522    6.7781 H   0  0  0  0  0  0  0  0  0  0  0  0
    2.1987   -3.1901    6.3800 H   0  0  0  0  0  0  0  0  0  0  0  0
    1.1607   -2.5870    7.6303 H   0  0  0  0  0  0  0  0  0  0  0  0
   -1.3509   -1.3820    5.4967 H   0  0  0  0  0  0  0  0  0  0  0  0
    0.8969    0.9918    7.5681 H   0  0  0  0  0  0  0  0  0  0  0  0
    2.1234   -0.9479    4.0071 H   0  0  0  0  0  0  0  0  0  0  0  0
    3.4408    2.0660    6.3455 H   0  0  0  0  0  0  0  0  0  0  0  0
    4.2338    0.5200    6.3021 H   0  0  0  0  0  0  0  0  0  0  0  0
    4.3454    2.4137    4.7124 H   0  0  0  0  0  0  0  0  0  0  0  0
    3.0920    3.2293    3.9914 H   0  0  0  0  0  0  0  0  0  0  0  0
    4.2277    3.2818    0.3718 H   0  0  0  0  0  0  0  0  0  0  0  0
    8.0786    1.1816   -1.4313 H   0  0  0  0  0  0  0  0  0  0  0  0
    6.8951    1.9792   -2.5122 H   0  0  0  0  0  0  0  0  0  0  0  0
    5.7043   -0.2486   -2.3185 H   0  0  0  0  0  0  0  0  0  0  0  0
    7.9680    0.4603   -3.7777 H   0  0  0  0  0  0  0  0  0  0  0  0
    7.8354   -1.2504   -3.7617 H   0  0  0  0  0  0  0  0  0  0  0  0
    4.2675   -1.4837   -4.2761 H   0  0  0  0  0  0  0  0  0  0  0  0
    7.1004   -1.2545   -7.3758 H   0  0  0  0  0  0  0  0  0  0  0  0
    5.7166    1.8110   -5.3504 H   0  0  0  0  0  0  0  0  0  0  0  0
    4.9358    0.4580   -9.0430 H   0  0  0  0  0  0  0  0  0  0  0  0
    4.8908    1.9430   -8.2041 H   0  0  0  0  0  0  0  0  0  0  0  0
    3.4262    0.3632   -6.8678 H   0  0  0  0  0  0  0  0  0  0  0  0
    2.7652    1.8016   -6.3746 H   0  0  0  0  0  0  0  0  0  0  0  0
   -0.4216   -0.8608   -6.0816 H   0  0  0  0  0  0  0  0  0  0  0  0
    0.8168    2.8113   -4.6947 H   0  0  0  0  0  0  0  0  0  0  0  0
    2.0658    3.6983   -2.7136 H   0  0  0  0  0  0  0  0  0  0  0  0
    2.5261    2.0634   -0.8863 H   0  0  0  0  0  0  0  0  0  0  0  0
    2.6508   -0.3758   -1.4734 H   0  0  0  0  0  0  0  0  0  0  0  0
    1.2464   -1.1107   -3.3654 H   0  0  0  0  0  0  0  0  0  0  0  0
    5.2005   -4.1555   -5.6947 H   0  0  0  0  0  0  0  0  0  0  0  0
    5.5521   -3.8331   -7.3326 H   0  0  0  0  0  0  0  0  0  0  0  0
    3.5019   -3.4265   -7.9762 H   0  0  0  0  0  0  0  0  0  0  0  0
    1.8973   -4.5954   -6.9463 H   0  0  0  0  0  0  0  0  0  0  0  0
    3.3612   -5.5063   -6.5033 H   0  0  0  0  0  0  0  0  0  0  0  0
    3.0319   -5.8188   -2.5182 H   0  0  0  0  0  0  0  0  0  0  0  0
    3.1579   -2.8212    0.3411 H   0  0  0  0  0  0  0  0  0  0  0  0
    1.8226   -3.7149    0.7693 H   0  0  0  0  0  0  0  0  0  0  0  0
    1.4862   -1.5104    1.6953 H   0  0  0  0  0  0  0  0  0  0  0  0
    1.1834   -3.0218    2.4274 H   0  0  0  0  0  0  0  0  0  0  0  0
    3.8736   -5.0896    1.7346 H   0  0  0  0  0  0  0  0  0  0  0  0
    5.8985   -4.4995    2.8785 H   0  0  0  0  0  0  0  0  0  0  0  0
    7.6725   -3.5576    1.5144 H   0  0  0  0  0  0  0  0  0  0  0  0
    8.0613   -4.5795   -0.7186 H   0  0  0  0  0  0  0  0  0  0  0  0
    5.9579   -4.9701   -1.9143 H   0  0  0  0  0  0  0  0  0  0  0  0
    2.5895    5.4585    1.2807 H   0  0  0  0  0  0  0  0  0  0  0  0
    1.9426    7.6542    2.2542 H   0  0  0  0  0  0  0  0  0  0  0  0
    3.0523    8.2842    4.3604 H   0  0  0  0  0  0  0  0  0  0  0  0
    5.3050    7.5153    4.7473 H   0  0  0  0  0  0  0  0  0  0  0  0
    6.1647    5.5669    3.4870 H   0  0  0  0  0  0  0  0  0  0  0  0
   -1.0418    2.5762    5.4946 H   0  0  0  0  0  0  0  0  0  0  0  0
   -0.3944    1.8840    4.0037 H   0  0  0  0  0  0  0  0  0  0  0  0
   -2.8093    1.9161    5.3275 H   0  0  0  0  0  0  0  0  0  0  0  0
   -3.5073    0.5373    5.9192 H   0  0  0  0  0  0  0  0  0  0  0  0
   -6.5172    0.3071    3.4921 H   0  0  0  0  0  0  0  0  0  0  0  0
   -5.9298    3.7388   -0.2147 H   0  0  0  0  0  0  0  0  0  0  0  0
   -7.5679    3.0706   -0.0774 H   0  0  0  0  0  0  0  0  0  0  0  0
   -7.2294    2.0328   -1.9586 H   0  0  0  0  0  0  0  0  0  0  0  0
   -4.4563    2.1340   -2.5082 H   0  0  0  0  0  0  0  0  0  0  0  0
   -4.9956    3.5955   -1.7916 H   0  0  0  0  0  0  0  0  0  0  0  0
   -5.4181    2.1247    7.6415 H   0  0  0  0  0  0  0  0  0  0  0  0
   -6.3184    0.8701    9.5874 H   0  0  0  0  0  0  0  0  0  0  0  0
   -6.8052   -1.5356    9.2017 H   0  0  0  0  0  0  0  0  0  0  0  0
   -7.5721   -2.2076    7.0274 H   0  0  0  0  0  0  0  0  0  0  0  0
   -7.1003   -0.8356    5.1129 H   0  0  0  0  0  0  0  0  0  0  0  0
   -4.0800   -6.1276    4.5860 H   0  0  0  0  0  0  0  0  0  0  0  0
   -6.4175   -5.6765    4.2691 H   0  0  0  0  0  0  0  0  0  0  0  0
   -7.5052   -6.6286    2.3197 H   0  0  0  0  0  0  0  0  0  0  0  0
   -6.6080   -8.6734    1.3578 H   0  0  0  0  0  0  0  0  0  0  0  0
   -4.2759   -9.1419    1.6864 H   0  0  0  0  0  0  0  0  0  0  0  0
   -4.8096    5.6151    0.9876 H   0  0  0  0  0  0  0  0  0  0  0  0
   -4.9794    7.0423    2.9764 H   0  0  0  0  0  0  0  0  0  0  0  0
   -3.5903    6.5678    4.9707 H   0  0  0  0  0  0  0  0  0  0  0  0
   -1.5158    5.3506    4.6096 H   0  0  0  0  0  0  0  0  0  0  0  0
   -1.2149    4.0702    2.5962 H   0  0  0  0  0  0  0  0  0  0  0  0
  1  2  2  0
  2  3  1  0
  3  4  1  0
  4  5  1  0
  5  6  1  0
  6  7  1  0
  7  8  1  0
  8  9  2  0
  9 10  1  0
 10 11  2  0
 11 12  1  0
 11 13  1  0
 13 14  1  0
 14 15  1  0
 15 16  1  0
 16 17  1  0
 17 18  2  0
 17 19  1  0
 19 20  1  0
 20 21  2  0
 21 22  1  0
 22 23  1  0
 23 24  1  0
 24 25  1  0
 25 26  1  0
 26 27  2  0
 27 28  1  0
 28 29  2  0
 29 30  1  0
 30 31  2  0
 30 32  1  0
 32 33  1  0
 33 34  1  0
 34 35  1  0
 35 36  1  0
 36 37  2  0
 37 38  1  0
 38 39  1  0
 39 40  2  0
 39 41  1  0
 41 42  1  0
 42 43  1  0
 43 44  1  0
 44 45  1  0
 45 46  2  0
 46 47  1  0
 47 48  2  0
 48 49  1  0
 49 50  2  0
 49 51  1  0
 51 52  1  0
 52 53  1  0
 53 54  1  0
 54 55  1  0
 55 56  2  0
 56 57  1  0
 57 58  1  0
 58 59  2  0
 58 60  1  0
 60 61  1  0
 61 62  1  0
 62 63  1  0
 63 64  1  0
 64 65  1  0
 65 66  2  0
 66 67  1  0
 67 68  2  0
 68 69  1  0
 68 70  1  0
 70 71  1  0
 71 72  1  0
 72 73  1  0
 73 74  1  0
 74 75  2  0
 75 76  1  0
 74 77  1  0
 77 78  2  0
 78 79  1  0
 79 80  2  0
 80 81  1  0
 81 82  2  0
 66 83  1  0
 83 84  1  0
 84 85  1  0
 85 86  1  0
 86 87  1  0
 87 88  2  0
 87 89  1  0
 89 90  1  0
 90 91  2  0
 91 92  1  0
 92 93  1  0
 93 94  1  0
 94 95  1  0
 91 96  1  0
 96 97  2  0
 97 98  1  0
 98 99  2  0
 99100  1  0
100101  2  0
 55102  1  0
102103  2  0
103104  1  0
104105  2  0
105106  1  0
106107  2  0
 47108  1  0
108109  1  0
109110  1  0
110111  1  0
111112  1  0
112113  2  0
113114  1  0
114115  1  0
115116  2  0
115117  1  0
117118  1  0
118119  1  0
119120  1  0
112121  1  0
121122  2  0
122123  1  0
123124  2  0
124125  1  0
125126  2  0
 36127  1  0
127128  2  0
128129  1  0
129130  2  0
130131  1  0
131132  2  0
 21133  1  0
133134  2  0
134135  1  0
135136  2  0
136137  1  0
137138  2  0
 76  2  1  0
 82 77  1  0
 93 89  2  0
101 96  1  0
107102  1  0
114110  2  0
126121  1  0
132127  1  0
138133  1  0
 12  7  2  0
 23 19  2  0
 31 26  1  0
 38 34  2  0
 50 45  1  0
 57 53  2  0
 69 64  2  0
 76 72  2  0
120  9  1  0
 95 28  1  0
  4139  1  0
  4140  1  0
  5141  1  0
  6142  1  0
  6143  1  0
  8144  1  0
 10145  1  0
 12146  1  0
 13147  1  0
 13148  1  0
 14149  1  0
 15150  1  0
 15151  1  0
 20152  1  0
 22153  1  0
 24154  1  0
 25155  1  0
 25156  1  0
 27157  1  0
 29158  1  0
 31159  1  0
 32160  1  0
 32161  1  0
 33162  1  0
 35163  1  0
 37164  1  0
 42165  1  0
 42166  1  0
 43167  1  0
 44168  1  0
 44169  1  0
 46170  1  0
 48171  1  0
 50172  1  0
 51173  1  0
 51174  1  0
 52175  1  0
 54176  1  0
 56177  1  0
 61178  1  0
 61179  1  0
 62180  1  0
 63181  1  0
 63182  1  0
 65183  1  0
 67184  1  0
 69185  1  0
 70186  1  0
 70187  1  0
 71188  1  0
 73189  1  0
 75190  1  0
 78191  1  0
 79192  1  0
 80193  1  0
 81194  1  0
 82195  1  0
 83196  1  0
 83197  1  0
 84198  1  0
 85199  1  0
 85200  1  0
 90201  1  0
 92202  1  0
 94203  1  0
 95204  1  0
 95205  1  0
 97206  1  0
 98207  1  0
 99208  1  0
100209  1  0
101210  1  0
103211  1  0
104212  1  0
105213  1  0
106214  1  0
107215  1  0
108216  1  0
108217  1  0
109218  1  0
111219  1  0
113220  1  0
118221  1  0
118222  1  0
119223  1  0
120224  1  0
120225  1  0
122226  1  0
123227  1  0
124228  1  0
125229  1  0
126230  1  0
128231  1  0
129232  1  0
130233  1  0
131234  1  0
132235  1  0
134236  1  0
135237  1  0
136238  1  0
137239  1  0
138240  1  0
M  END
