
     RDKit          3D

132144  0  0  0  0  0  0  0  0999 V2000
   -1.1511    5.7646    1.6381 C   0  0  0  0  0  0  0  0  0  0  0  0
   -1.5599    4.4327    1.3526 C   0  0  0  0  0  0  0  0  0  0  0  0
   -2.1649    4.7275    0.0966 C   0  0  0  0  0  0  0  0  0  0  0  0
   -1.2654    5.0906   -0.9453 C   0  0  0  0  0  0  0  0  0  0  0  0
   -0.8394    6.3317   -0.3894 C   0  0  0  0  0  0  0  0  0  0  0  0
   -0.0926    6.2380    0.8128 C   0  0  0  0  0  0  0  0  0  0  0  0
    1.3565    6.1333    1.0297 C   0  0  0  0  0  0  0  0  0  0  0  0
    2.2317    5.6855   -0.0082 N   0  0  0  0  0  0  0  0  0  0  0  0
    3.0071    5.5702   -1.1990 C   0  0  0  0  0  0  0  0  0  0  0  0
    4.1148    5.7802   -0.3831 C   0  0  0  0  0  0  0  0  0  0  0  0
    5.1282    4.5103   -1.0021 S   0  0  0  0  0  0  0  0  0  0  0  0
    3.9956    4.0250   -2.2151 C   0  0  0  0  0  0  0  0  0  0  0  0
    3.3519    5.2011   -2.4265 N   0  0  0  0  0  0  0  0  0  0  0  0
    4.4886    2.7282   -1.9987 N   0  0  0  0  0  0  0  0  0  0  0  0
    4.7805    1.3166   -2.1028 C   0  0  0  0  0  0  0  0  0  0  0  0
    3.6414    0.4385   -1.7446 C   0  0  0  0  0  0  0  0  0  0  0  0
    2.7756   -0.2990   -2.6021 C   0  0  0  0  0  0  0  0  0  0  0  0
    3.2295   -1.6049   -2.9516 C   0  0  0  0  0  0  0  0  0  0  0  0
    3.0698   -2.1672   -1.6524 C   0  0  0  0  0  0  0  0  0  0  0  0
    3.9852   -1.6857   -0.6705 C   0  0  0  0  0  0  0  0  0  0  0  0
    3.4507   -0.3682   -0.5841 C   0  0  0  0  0  0  0  0  0  0  0  0
    5.3521   -2.1511   -0.3413 C   0  0  0  0  0  0  0  0  0  0  0  0
    5.4274   -2.8744    0.9223 N   0  0  0  0  0  0  0  0  0  0  0  0
    5.0993   -3.5797    2.0896 C   0  0  0  0  0  0  0  0  0  0  0  0
    4.5324   -4.0994    3.2084 N   0  0  0  0  0  0  0  0  0  0  0  0
    4.5492   -3.1526    4.1453 C   0  0  0  0  0  0  0  0  0  0  0  0
    5.8382   -2.6807    4.3807 C   0  0  0  0  0  0  0  0  0  0  0  0
    6.4972   -2.8369    2.7777 S   0  0  0  0  0  0  0  0  0  0  0  0
    4.1102   -1.9739    4.8117 N   0  0  0  0  0  0  0  0  0  0  0  0
    3.5440   -0.7922    5.4632 C   0  0  0  0  0  0  0  0  0  0  0  0
    2.1148   -0.7998    5.7845 C   0  0  0  0  0  0  0  0  0  0  0  0
    1.0538   -0.5271    4.8448 C   0  0  0  0  0  0  0  0  0  0  0  0
    0.5292   -1.7893    4.4001 C   0  0  0  0  0  0  0  0  0  0  0  0
   -0.0040   -2.3386    5.6090 C   0  0  0  0  0  0  0  0  0  0  0  0
    0.0566   -1.4991    6.7709 C   0  0  0  0  0  0  0  0  0  0  0  0
    1.4966   -1.5627    6.8178 C   0  0  0  0  0  0  0  0  0  0  0  0
   -0.9403   -0.4634    7.2631 C   0  0  0  0  0  0  0  0  0  0  0  0
   -1.7614    0.1991    6.3298 N   0  0  0  0  0  0  0  0  0  0  0  0
   -2.6850    0.5697    5.3115 C   0  0  0  0  0  0  0  0  0  0  0  0
   -3.4578    0.8552    4.2304 N   0  0  0  0  0  0  0  0  0  0  0  0
   -2.8067    1.8810    3.6794 C   0  0  0  0  0  0  0  0  0  0  0  0
   -2.7861    2.9942    4.5130 C   0  0  0  0  0  0  0  0  0  0  0  0
   -2.6149    2.1473    6.0199 S   0  0  0  0  0  0  0  0  0  0  0  0
   -1.8590    2.5506    2.8834 N   0  0  0  0  0  0  0  0  0  0  0  0
   -1.0118    3.1407    1.8423 C   0  0  0  0  0  0  0  0  0  0  0  0
    0.8933   -2.4660    3.1473 C   0  0  0  0  0  0  0  0  0  0  0  0
   -0.0405   -2.2231    2.0343 N   0  0  0  0  0  0  0  0  0  0  0  0
   -0.5237   -1.6890    0.8107 C   0  0  0  0  0  0  0  0  0  0  0  0
   -1.4399   -0.9867    1.5886 C   0  0  0  0  0  0  0  0  0  0  0  0
   -2.8543   -1.3562    0.6533 S   0  0  0  0  0  0  0  0  0  0  0  0
   -1.9626   -2.2979   -0.4943 C   0  0  0  0  0  0  0  0  0  0  0  0
   -0.7983   -1.5975   -0.4909 N   0  0  0  0  0  0  0  0  0  0  0  0
   -3.1506   -2.9469   -0.7588 N   0  0  0  0  0  0  0  0  0  0  0  0
   -4.2137   -3.7526   -1.2292 C   0  0  0  0  0  0  0  0  0  0  0  0
   -4.5835   -3.6906   -2.6749 C   0  0  0  0  0  0  0  0  0  0  0  0
   -5.0658   -2.5707   -3.4046 C   0  0  0  0  0  0  0  0  0  0  0  0
   -4.0894   -1.7037   -3.9845 C   0  0  0  0  0  0  0  0  0  0  0  0
   -3.5160   -2.6351   -4.9021 C   0  0  0  0  0  0  0  0  0  0  0  0
   -2.8343   -3.7605   -4.3484 C   0  0  0  0  0  0  0  0  0  0  0  0
   -3.9969   -4.3638   -3.7818 C   0  0  0  0  0  0  0  0  0  0  0  0
   -1.4258   -3.8470   -3.8911 C   0  0  0  0  0  0  0  0  0  0  0  0
   -0.4845   -4.1581   -4.9708 N   0  0  0  0  0  0  0  0  0  0  0  0
    0.5963   -4.4237   -5.8328 C   0  0  0  0  0  0  0  0  0  0  0  0
    1.8783   -4.6550   -6.2133 N   0  0  0  0  0  0  0  0  0  0  0  0
    2.6479   -3.5817   -5.9703 C   0  0  0  0  0  0  0  0  0  0  0  0
    2.1047   -2.4318   -6.5346 C   0  0  0  0  0  0  0  0  0  0  0  0
    0.4110   -2.8172   -6.4188 S   0  0  0  0  0  0  0  0  0  0  0  0
    3.4168   -2.6967   -5.1461 N   0  0  0  0  0  0  0  0  0  0  0  0
    4.1257   -2.0261   -4.0499 C   0  0  0  0  0  0  0  0  0  0  0  0
   -3.4053   -0.5313   -3.3893 C   0  0  0  0  0  0  0  0  0  0  0  0
   -3.5552    0.6903   -4.1793 N   0  0  0  0  0  0  0  0  0  0  0  0
   -3.1631    1.8417   -4.9374 C   0  0  0  0  0  0  0  0  0  0  0  0
   -2.4216    2.8874   -5.3997 N   0  0  0  0  0  0  0  0  0  0  0  0
   -2.0683    3.6526   -4.3357 C   0  0  0  0  0  0  0  0  0  0  0  0
   -3.2102    4.0955   -3.6722 C   0  0  0  0  0  0  0  0  0  0  0  0
   -4.2377    2.7072   -3.9018 S   0  0  0  0  0  0  0  0  0  0  0  0
   -1.3459    4.0740   -3.1734 N   0  0  0  0  0  0  0  0  0  0  0  0
   -0.5909    4.2056   -1.9113 C   0  0  0  0  0  0  0  0  0  0  0  0
   -1.5385    6.3307    2.5101 H   0  0  0  0  0  0  0  0  0  0  0  0
   -3.2524    4.5793   -0.0732 H   0  0  0  0  0  0  0  0  0  0  0  0
   -1.0024    7.2935   -0.9189 H   0  0  0  0  0  0  0  0  0  0  0  0
    1.7997    7.1038    1.3953 H   0  0  0  0  0  0  0  0  0  0  0  0
    1.7416    5.4351    1.8195 H   0  0  0  0  0  0  0  0  0  0  0  0
    3.0819    5.9706    0.5482 H   0  0  0  0  0  0  0  0  0  0  0  0
    4.0716    6.1807    0.6312 H   0  0  0  0  0  0  0  0  0  0  0  0
    5.1221    2.9553   -1.1876 H   0  0  0  0  0  0  0  0  0  0  0  0
    5.2466    1.2093   -3.1183 H   0  0  0  0  0  0  0  0  0  0  0  0
    5.7479    1.1945   -1.5483 H   0  0  0  0  0  0  0  0  0  0  0  0
    1.8797    0.1571   -3.0726 H   0  0  0  0  0  0  0  0  0  0  0  0
    2.3863   -3.0186   -1.4547 H   0  0  0  0  0  0  0  0  0  0  0  0
    3.0286    0.0425    0.3555 H   0  0  0  0  0  0  0  0  0  0  0  0
    5.8569   -2.8739   -1.0336 H   0  0  0  0  0  0  0  0  0  0  0  0
    6.1939   -1.4118   -0.3335 H   0  0  0  0  0  0  0  0  0  0  0  0
    6.1784   -2.3009    1.3375 H   0  0  0  0  0  0  0  0  0  0  0  0
    6.0922   -1.9337    5.1357 H   0  0  0  0  0  0  0  0  0  0  0  0
    5.0597   -1.8096    5.2379 H   0  0  0  0  0  0  0  0  0  0  0  0
    3.9051   -0.0478    4.6952 H   0  0  0  0  0  0  0  0  0  0  0  0
    4.2610   -0.3589    6.2151 H   0  0  0  0  0  0  0  0  0  0  0  0
    0.6735    0.4686    4.5730 H   0  0  0  0  0  0  0  0  0  0  0  0
   -0.6580   -3.2358    5.6497 H   0  0  0  0  0  0  0  0  0  0  0  0
    1.9595   -1.9399    7.7536 H   0  0  0  0  0  0  0  0  0  0  0  0
   -0.4814    0.3942    7.8174 H   0  0  0  0  0  0  0  0  0  0  0  0
   -1.6096   -0.8663    8.0702 H   0  0  0  0  0  0  0  0  0  0  0  0
   -1.9929    1.0145    6.9049 H   0  0  0  0  0  0  0  0  0  0  0  0
   -2.3666    3.9595    4.2235 H   0  0  0  0  0  0  0  0  0  0  0  0
   -2.0358    3.4863    3.3304 H   0  0  0  0  0  0  0  0  0  0  0  0
   -0.0110    3.1386    2.3446 H   0  0  0  0  0  0  0  0  0  0  0  0
   -0.8148    2.3231    1.1363 H   0  0  0  0  0  0  0  0  0  0  0  0
    1.9140   -2.2599    2.7067 H   0  0  0  0  0  0  0  0  0  0  0  0
    1.0442   -3.5512    3.0649 H   0  0  0  0  0  0  0  0  0  0  0  0
   -0.5619   -1.5098    2.6090 H   0  0  0  0  0  0  0  0  0  0  0  0
   -1.3585   -0.8436    2.6683 H   0  0  0  0  0  0  0  0  0  0  0  0
   -3.7563   -2.2293   -0.2794 H   0  0  0  0  0  0  0  0  0  0  0  0
   -3.9686   -4.7732   -0.8320 H   0  0  0  0  0  0  0  0  0  0  0  0
   -5.0710   -3.5982   -0.5192 H   0  0  0  0  0  0  0  0  0  0  0  0
   -6.1461   -2.3228   -3.4740 H   0  0  0  0  0  0  0  0  0  0  0  0
   -3.5479   -2.4602   -5.9998 H   0  0  0  0  0  0  0  0  0  0  0  0
   -4.3331   -5.3709   -4.1109 H   0  0  0  0  0  0  0  0  0  0  0  0
   -0.9750   -2.9447   -3.4006 H   0  0  0  0  0  0  0  0  0  0  0  0
   -1.1519   -4.5781   -3.1206 H   0  0  0  0  0  0  0  0  0  0  0  0
   -0.7344   -3.2640   -5.4708 H   0  0  0  0  0  0  0  0  0  0  0  0
    2.5699   -1.4468   -6.4522 H   0  0  0  0  0  0  0  0  0  0  0  0
    3.2017   -1.8514   -5.7163 H   0  0  0  0  0  0  0  0  0  0  0  0
    4.7191   -1.2574   -4.5990 H   0  0  0  0  0  0  0  0  0  0  0  0
    4.9719   -2.7158   -3.8407 H   0  0  0  0  0  0  0  0  0  0  0  0
   -2.3295   -0.6493   -3.0858 H   0  0  0  0  0  0  0  0  0  0  0  0
   -3.7419   -0.1751   -2.3820 H   0  0  0  0  0  0  0  0  0  0  0  0
   -4.2892    1.1609   -3.6349 H   0  0  0  0  0  0  0  0  0  0  0  0
   -3.1919    4.8102   -2.8758 H   0  0  0  0  0  0  0  0  0  0  0  0
   -2.1375    4.6805   -2.8519 H   0  0  0  0  0  0  0  0  0  0  0  0
   -0.3409    3.1542   -1.6137 H   0  0  0  0  0  0  0  0  0  0  0  0
    0.3936    4.4659   -2.3143 H   0  0  0  0  0  0  0  0  0  0  0  0
  1  2  2  0
  2  3  1  0
  3  4  2  0
  4  5  1  0
  5  6  2  0
  6  7  1  0
  7  8  1  0
  8  9  1  0
  9 10  2  0
 10 11  1  0
 11 12  1  0
 12 13  2  0
 12 14  1  0
 14 15  1  0
 15 16  1  0
 16 17  2  0
 17 18  1  0
 18 19  2  0
 19 20  1  0
 20 21  2  0
 20 22  1  0
 22 23  1  0
 23 24  1  0
 24 25  2  0
 25 26  1  0
 26 27  2  0
 27 28  1  0
 26 29  1  0
 29 30  1  0
 30 31  1  0
 31 32  2  0
 32 33  1  0
 33 34  2  0
 34 35  1  0
 35 36  2  0
 35 37  1  0
 37 38  1  0
 38 39  1  0
 39 40  2  0
 40 41  1  0
 41 42  2  0
 42 43  1  0
 41 44  1  0
 44 45  1  0
 33 46  1  0
 46 47  1  0
 47 48  1  0
 48 49  2  0
 49 50  1  0
 50 51  1  0
 51 52  2  0
 51 53  1  0
 53 54  1  0
 54 55  1  0
 55 56  1  0
 56 57  2  0
 57 58  1  0
 58 59  2  0
 59 60  1  0
 59 61  1  0
 61 62  1  0
 62 63  1  0
 63 64  2  0
 64 65  1  0
 65 66  2  0
 66 67  1  0
 65 68  1  0
 68 69  1  0
 57 70  1  0
 70 71  1  0
 71 72  1  0
 72 73  2  0
 73 74  1  0
 74 75  2  0
 75 76  1  0
 74 77  1  0
 77 78  1  0
  6  1  1  0
 13  9  1  0
 21 16  1  0
 28 24  1  0
 36 31  1  0
 43 39  1  0
 52 48  1  0
 60 55  2  0
 67 63  1  0
 76 72  1  0
 45  2  1  0
 78  4  1  0
 69 18  1  0
  1 79  1  0
  3 80  1  0
  5 81  1  0
  7 82  1  0
  7 83  1  0
  8 84  1  0
 10 85  1  0
 14 86  1  0
 15 87  1  0
 15 88  1  0
 17 89  1  0
 19 90  1  0
 21 91  1  0
 22 92  1  0
 22 93  1  0
 23 94  1  0
 27 95  1  0
 29 96  1  0
 30 97  1  0
 30 98  1  0
 32 99  1  0
 34100  1  0
 36101  1  0
 37102  1  0
 37103  1  0
 38104  1  0
 42105  1  0
 44106  1  0
 45107  1  0
 45108  1  0
 46109  1  0
 46110  1  0
 47111  1  0
 49112  1  0
 53113  1  0
 54114  1  0
 54115  1  0
 56116  1  0
 58117  1  0
 60118  1  0
 61119  1  0
 61120  1  0
 62121  1  0
 66122  1  0
 68123  1  0
 69124  1  0
 69125  1  0
 70126  1  0
 70127  1  0
 71128  1  0
 75129  1  0
 77130  1  0
 78131  1  0
 78132  1  0
M  END
