
     RDKit          3D

132144  0  0  0  0  0  0  0  0999 V2000
    2.1699    1.7356    0.5486 C   0  0  0  0  0  0  0  0  0  0  0  0
    3.3351    0.9882    0.1543 C   0  0  0  0  0  0  0  0  0  0  0  0
    4.3560    1.9661   -0.0262 C   0  0  0  0  0  0  0  0  0  0  0  0
    3.8599    3.3116   -0.0061 C   0  0  0  0  0  0  0  0  0  0  0  0
    3.5789    3.2766    1.3981 C   0  0  0  0  0  0  0  0  0  0  0  0
    2.5089    2.4085    1.7719 C   0  0  0  0  0  0  0  0  0  0  0  0
    2.2684    1.8846    3.1234 C   0  0  0  0  0  0  0  0  0  0  0  0
    3.2942    1.0571    3.7281 N   0  0  0  0  0  0  0  0  0  0  0  0
    2.9144    0.1784    4.7344 C   0  0  0  0  0  0  0  0  0  0  0  0
    4.0142   -0.1349    5.7480 C   0  0  0  0  0  0  0  0  0  0  0  0
    3.6094   -1.0835    4.7472 N   0  0  0  0  0  0  0  0  0  0  0  0
    1.6288    0.2267    5.2955 N   0  0  0  0  0  0  0  0  0  0  0  0
    0.9464   -1.0078    5.1055 C   0  0  0  0  0  0  0  0  0  0  0  0
   -0.3911   -1.2111    5.6907 C   0  0  0  0  0  0  0  0  0  0  0  0
   -1.2897   -2.2621    5.3520 C   0  0  0  0  0  0  0  0  0  0  0  0
   -2.1084   -2.0869    4.1992 C   0  0  0  0  0  0  0  0  0  0  0  0
   -2.8789   -1.0095    4.7084 C   0  0  0  0  0  0  0  0  0  0  0  0
   -2.1759    0.2034    4.9590 C   0  0  0  0  0  0  0  0  0  0  0  0
   -1.3828   -0.2571    6.0421 C   0  0  0  0  0  0  0  0  0  0  0  0
   -1.8887    1.3035    4.0290 C   0  0  0  0  0  0  0  0  0  0  0  0
   -2.0430    1.1371    2.6169 N   0  0  0  0  0  0  0  0  0  0  0  0
   -2.6496    2.2534    1.9441 C   0  0  0  0  0  0  0  0  0  0  0  0
   -2.4402    3.6634    2.4844 C   0  0  0  0  0  0  0  0  0  0  0  0
   -3.6675    2.9469    2.6191 N   0  0  0  0  0  0  0  0  0  0  0  0
   -2.4448    2.1720    0.5484 N   0  0  0  0  0  0  0  0  0  0  0  0
   -3.2760    2.9826   -0.2769 C   0  0  0  0  0  0  0  0  0  0  0  0
   -2.6554    3.6640   -1.4844 C   0  0  0  0  0  0  0  0  0  0  0  0
   -1.2813    3.8813   -1.8433 C   0  0  0  0  0  0  0  0  0  0  0  0
   -0.6531    2.7343   -2.4045 C   0  0  0  0  0  0  0  0  0  0  0  0
   -1.7367    1.8166   -2.6230 C   0  0  0  0  0  0  0  0  0  0  0  0
   -2.6099    2.4643   -3.5591 C   0  0  0  0  0  0  0  0  0  0  0  0
   -3.0268    3.6395   -2.8757 C   0  0  0  0  0  0  0  0  0  0  0  0
   -2.6413    2.1677   -4.9700 C   0  0  0  0  0  0  0  0  0  0  0  0
   -1.5527    1.5460   -5.6702 N   0  0  0  0  0  0  0  0  0  0  0  0
   -1.3192    0.1798   -5.6055 C   0  0  0  0  0  0  0  0  0  0  0  0
    0.0711   -0.1999   -6.1021 C   0  0  0  0  0  0  0  0  0  0  0  0
   -1.0579   -0.5761   -6.9033 N   0  0  0  0  0  0  0  0  0  0  0  0
   -2.0111   -0.5834   -4.6950 N   0  0  0  0  0  0  0  0  0  0  0  0
   -1.9523   -2.0107   -4.7318 C   0  0  0  0  0  0  0  0  0  0  0  0
   -2.0476   -2.7732   -3.4556 C   0  0  0  0  0  0  0  0  0  0  0  0
   -0.9706   -3.3460   -2.7017 C   0  0  0  0  0  0  0  0  0  0  0  0
   -0.5483   -2.3123   -1.7933 C   0  0  0  0  0  0  0  0  0  0  0  0
   -1.6797   -1.9772   -0.9963 C   0  0  0  0  0  0  0  0  0  0  0  0
   -2.7005   -2.9800   -1.1265 C   0  0  0  0  0  0  0  0  0  0  0  0
   -3.0425   -2.5620   -2.4550 C   0  0  0  0  0  0  0  0  0  0  0  0
   -2.8218   -4.3672   -0.5272 C   0  0  0  0  0  0  0  0  0  0  0  0
   -1.8258   -4.7668    0.4254 N   0  0  0  0  0  0  0  0  0  0  0  0
   -2.1993   -4.4609    1.8047 C   0  0  0  0  0  0  0  0  0  0  0  0
   -3.4538   -4.7318    2.3927 C   0  0  0  0  0  0  0  0  0  0  0  0
   -2.4023   -5.7124    2.6505 N   0  0  0  0  0  0  0  0  0  0  0  0
   -1.2442   -3.6129    2.4211 N   0  0  0  0  0  0  0  0  0  0  0  0
   -1.7019   -2.3054    2.8003 C   0  0  0  0  0  0  0  0  0  0  0  0
    0.5781   -1.4145   -2.0576 C   0  0  0  0  0  0  0  0  0  0  0  0
    1.5999   -1.3468   -1.0085 N   0  0  0  0  0  0  0  0  0  0  0  0
    2.8301   -1.9454   -1.2853 C   0  0  0  0  0  0  0  0  0  0  0  0
    2.9367   -3.4181   -1.4977 C   0  0  0  0  0  0  0  0  0  0  0  0
    3.1924   -2.4926   -2.5744 N   0  0  0  0  0  0  0  0  0  0  0  0
    3.8914   -1.3220   -0.6167 N   0  0  0  0  0  0  0  0  0  0  0  0
    3.5690   -0.4170    0.4836 C   0  0  0  0  0  0  0  0  0  0  0  0
    0.6425    2.6149   -3.0189 C   0  0  0  0  0  0  0  0  0  0  0  0
    1.4332    3.7060   -3.4980 N   0  0  0  0  0  0  0  0  0  0  0  0
    2.8277    3.4666   -3.4576 C   0  0  0  0  0  0  0  0  0  0  0  0
    3.3479    2.2792   -4.2505 C   0  0  0  0  0  0  0  0  0  0  0  0
    3.4810    3.6133   -4.7782 N   0  0  0  0  0  0  0  0  0  0  0  0
    3.5937    3.9671   -2.4114 N   0  0  0  0  0  0  0  0  0  0  0  0
    3.1130    4.0638   -1.1029 C   0  0  0  0  0  0  0  0  0  0  0  0
    1.2469    1.8596   -0.0352 H   0  0  0  0  0  0  0  0  0  0  0  0
    5.3835    1.8133   -0.4186 H   0  0  0  0  0  0  0  0  0  0  0  0
    4.0185    4.0771    2.0332 H   0  0  0  0  0  0  0  0  0  0  0  0
    1.4461    1.1197    3.2343 H   0  0  0  0  0  0  0  0  0  0  0  0
    1.7779    2.5750    3.8636 H   0  0  0  0  0  0  0  0  0  0  0  0
    4.0511    1.7137    4.0517 H   0  0  0  0  0  0  0  0  0  0  0  0
    4.9924    0.3553    5.6399 H   0  0  0  0  0  0  0  0  0  0  0  0
    3.7339   -0.4109    6.7742 H   0  0  0  0  0  0  0  0  0  0  0  0
    4.2590   -1.3150    3.9654 H   0  0  0  0  0  0  0  0  0  0  0  0
    1.0861    1.0835    5.2266 H   0  0  0  0  0  0  0  0  0  0  0  0
    1.0744   -1.1013    3.9990 H   0  0  0  0  0  0  0  0  0  0  0  0
    1.7399   -1.6945    5.5079 H   0  0  0  0  0  0  0  0  0  0  0  0
   -1.3158   -3.2097    5.9351 H   0  0  0  0  0  0  0  0  0  0  0  0
   -3.9786   -1.0882    4.8481 H   0  0  0  0  0  0  0  0  0  0  0  0
   -1.4575    0.1625    7.0657 H   0  0  0  0  0  0  0  0  0  0  0  0
   -2.5187    2.2064    4.2550 H   0  0  0  0  0  0  0  0  0  0  0  0
   -0.8663    1.7600    3.9998 H   0  0  0  0  0  0  0  0  0  0  0  0
   -1.2278    0.7361    2.1259 H   0  0  0  0  0  0  0  0  0  0  0  0
   -2.4657    4.5142    1.7748 H   0  0  0  0  0  0  0  0  0  0  0  0
   -1.7507    3.8304    3.3196 H   0  0  0  0  0  0  0  0  0  0  0  0
   -4.5576    3.2581    2.2172 H   0  0  0  0  0  0  0  0  0  0  0  0
   -1.4217    2.3875    0.3996 H   0  0  0  0  0  0  0  0  0  0  0  0
   -4.0788    2.2592   -0.4610 H   0  0  0  0  0  0  0  0  0  0  0  0
   -3.7594    3.7200    0.4169 H   0  0  0  0  0  0  0  0  0  0  0  0
   -0.7726    4.7583   -1.3912 H   0  0  0  0  0  0  0  0  0  0  0  0
   -1.9151    0.8700   -2.0941 H   0  0  0  0  0  0  0  0  0  0  0  0
   -3.8199    4.3507   -3.1930 H   0  0  0  0  0  0  0  0  0  0  0  0
   -3.5020    1.5159   -5.3051 H   0  0  0  0  0  0  0  0  0  0  0  0
   -2.7189    2.9612   -5.7634 H   0  0  0  0  0  0  0  0  0  0  0  0
   -0.7292    2.1456   -5.8294 H   0  0  0  0  0  0  0  0  0  0  0  0
    0.7022    0.5848   -6.5843 H   0  0  0  0  0  0  0  0  0  0  0  0
    0.6744   -0.9275   -5.5539 H   0  0  0  0  0  0  0  0  0  0  0  0
   -1.2860   -0.0388   -7.7602 H   0  0  0  0  0  0  0  0  0  0  0  0
   -3.0078   -0.3226   -4.6360 H   0  0  0  0  0  0  0  0  0  0  0  0
   -2.5178   -2.4710   -5.5903 H   0  0  0  0  0  0  0  0  0  0  0  0
   -0.9614   -2.0693   -5.2667 H   0  0  0  0  0  0  0  0  0  0  0  0
   -0.6094   -4.3804   -2.7530 H   0  0  0  0  0  0  0  0  0  0  0  0
   -1.7653   -1.2770   -0.1393 H   0  0  0  0  0  0  0  0  0  0  0  0
   -4.1160   -2.3512   -2.6611 H   0  0  0  0  0  0  0  0  0  0  0  0
   -3.7554   -4.4925    0.0810 H   0  0  0  0  0  0  0  0  0  0  0  0
   -2.7734   -5.2325   -1.1887 H   0  0  0  0  0  0  0  0  0  0  0  0
   -0.8854   -4.3686    0.2656 H   0  0  0  0  0  0  0  0  0  0  0  0
   -3.7241   -4.1730    3.3241 H   0  0  0  0  0  0  0  0  0  0  0  0
   -4.3352   -5.1775    1.9103 H   0  0  0  0  0  0  0  0  0  0  0  0
   -2.4195   -6.5972    2.1170 H   0  0  0  0  0  0  0  0  0  0  0  0
   -0.6029   -4.0605    3.0966 H   0  0  0  0  0  0  0  0  0  0  0  0
   -0.8990   -1.6474    2.3764 H   0  0  0  0  0  0  0  0  0  0  0  0
   -2.4867   -2.1912    2.0095 H   0  0  0  0  0  0  0  0  0  0  0  0
    0.3809   -0.4036   -2.5061 H   0  0  0  0  0  0  0  0  0  0  0  0
    1.2847   -1.6502   -2.9037 H   0  0  0  0  0  0  0  0  0  0  0  0
    1.1700   -1.8751   -0.2015 H   0  0  0  0  0  0  0  0  0  0  0  0
    2.0234   -4.0374   -1.6781 H   0  0  0  0  0  0  0  0  0  0  0  0
    3.8608   -3.9587   -1.1702 H   0  0  0  0  0  0  0  0  0  0  0  0
    4.1576   -2.3718   -2.9458 H   0  0  0  0  0  0  0  0  0  0  0  0
    4.7132   -1.0368   -1.1611 H   0  0  0  0  0  0  0  0  0  0  0  0
    4.1568   -0.6737    1.4103 H   0  0  0  0  0  0  0  0  0  0  0  0
    2.6987   -1.0428    0.8362 H   0  0  0  0  0  0  0  0  0  0  0  0
    1.4049    2.0248   -2.4240 H   0  0  0  0  0  0  0  0  0  0  0  0
    0.7857    2.0501   -3.9855 H   0  0  0  0  0  0  0  0  0  0  0  0
    1.0714    4.1687   -4.3519 H   0  0  0  0  0  0  0  0  0  0  0  0
    2.6349    1.6454   -4.8006 H   0  0  0  0  0  0  0  0  0  0  0  0
    4.2678    1.8031   -3.8763 H   0  0  0  0  0  0  0  0  0  0  0  0
    2.9047    3.9181   -5.5792 H   0  0  0  0  0  0  0  0  0  0  0  0
    4.5316    4.3409   -2.6178 H   0  0  0  0  0  0  0  0  0  0  0  0
    3.2302    5.1749   -1.0082 H   0  0  0  0  0  0  0  0  0  0  0  0
    2.0386    3.9119   -1.1610 H   0  0  0  0  0  0  0  0  0  0  0  0
  1  2  2  0
  2  3  1  0
  3  4  2  0
  4  5  1  0
  5  6  2  0
  6  7  1  0
  7  8  1  0
  8  9  1  0
  9 10  1  0
 10 11  1  0
  9 12  1  0
 12 13  1  0
 13 14  1  0
 14 15  2  0
 15 16  1  0
 16 17  2  0
 17 18  1  0
 18 19  2  0
 18 20  1  0
 20 21  1  0
 21 22  1  0
 22 23  1  0
 23 24  1  0
 22 25  1  0
 25 26  1  0
 26 27  1  0
 27 28  2  0
 28 29  1  0
 29 30  2  0
 30 31  1  0
 31 32  2  0
 31 33  1  0
 33 34  1  0
 34 35  1  0
 35 36  1  0
 36 37  1  0
 35 38  1  0
 38 39  1  0
 39 40  1  0
 40 41  1  0
 41 42  2  0
 42 43  1  0
 43 44  2  0
 44 45  1  0
 44 46  1  0
 46 47  1  0
 47 48  1  0
 48 49  1  0
 49 50  1  0
 48 51  1  0
 51 52  1  0
 42 53  1  0
 53 54  1  0
 54 55  1  0
 55 56  1  0
 56 57  1  0
 55 58  1  0
 58 59  1  0
 29 60  1  0
 60 61  1  0
 61 62  1  0
 62 63  1  0
 63 64  1  0
 62 65  1  0
 65 66  1  0
  6  1  1  0
 11  9  1  0
 19 14  1  0
 24 22  1  0
 32 27  1  0
 37 35  1  0
 45 40  2  0
 50 48  1  0
 57 55  1  0
 64 62  1  0
 59  2  1  0
 66  4  1  0
 52 16  1  0
  1 67  1  0
  3 68  1  0
  5 69  1  0
  7 70  1  0
  7 71  1  0
  8 72  1  0
 10 73  1  0
 10 74  1  0
 11 75  1  0
 12 76  1  0
 13 77  1  0
 13 78  1  0
 15 79  1  0
 17 80  1  0
 19 81  1  0
 20 82  1  0
 20 83  1  0
 21 84  1  0
 23 85  1  0
 23 86  1  0
 24 87  1  0
 25 88  1  0
 26 89  1  0
 26 90  1  0
 28 91  1  0
 30 92  1  0
 32 93  1  0
 33 94  1  0
 33 95  1  0
 34 96  1  0
 36 97  1  0
 36 98  1  0
 37 99  1  0
 38100  1  0
 39101  1  0
 39102  1  0
 41103  1  0
 43104  1  0
 45105  1  0
 46106  1  0
 46107  1  0
 47108  1  0
 49109  1  0
 49110  1  0
 50111  1  0
 51112  1  0
 52113  1  0
 52114  1  0
 53115  1  0
 53116  1  0
 54117  1  0
 56118  1  0
 56119  1  0
 57120  1  0
 58121  1  0
 59122  1  0
 59123  1  0
 60124  1  0
 60125  1  0
 61126  1  0
 63127  1  0
 63128  1  0
 64129  1  0
 65130  1  0
 66131  1  0
 66132  1  0
M  END
