
     RDKit          3D

156162  0  0  0  0  0  0  0  0999 V2000
    1.5624   -3.1908   -3.9584 O   0  0  0  0  0  0  0  0  0  0  0  0
    1.4031   -3.4132   -2.7291 C   0  0  0  0  0  0  0  0  0  0  0  0
    2.4954   -4.3053   -2.6191 N   0  0  0  0  0  0  0  0  0  0  0  0
    3.4317   -5.3596   -2.4176 C   0  0  0  0  0  0  0  0  0  0  0  0
    4.7668   -4.8649   -1.8436 C   0  0  0  0  0  0  0  0  0  0  0  0
    5.8721   -4.2517   -2.5099 C   0  0  0  0  0  0  0  0  0  0  0  0
    6.0202   -2.8471   -2.2785 C   0  0  0  0  0  0  0  0  0  0  0  0
    6.3009   -2.8386   -0.8790 C   0  0  0  0  0  0  0  0  0  0  0  0
    5.2379   -3.3033   -0.0449 C   0  0  0  0  0  0  0  0  0  0  0  0
    5.1417   -4.6669   -0.4786 C   0  0  0  0  0  0  0  0  0  0  0  0
    4.3536   -2.4751    0.8963 C   0  0  0  0  0  0  0  0  0  0  0  0
    3.7588   -1.3246    0.2702 N   0  0  0  0  0  0  0  0  0  0  0  0
    2.8853   -0.7542    1.2753 C   0  0  0  0  0  0  0  0  0  0  0  0
    1.5586   -1.2591    1.1317 O   0  0  0  0  0  0  0  0  0  0  0  0
    0.4839   -2.1417    0.9692 C   0  0  0  0  0  0  0  0  0  0  0  0
   -0.3667   -1.3789    1.4762 O   0  0  0  0  0  0  0  0  0  0  0  0
   -0.3022   -3.3825    1.0662 C   0  0  0  0  0  0  0  0  0  0  0  0
   -1.3718   -2.7609    1.2305 O   0  0  0  0  0  0  0  0  0  0  0  0
   -0.7556   -4.6789    1.6034 C   0  0  0  0  0  0  0  0  0  0  0  0
   -1.9801   -4.3530    1.5593 O   0  0  0  0  0  0  0  0  0  0  0  0
   -0.9660   -5.6719    2.6216 N   0  0  0  0  0  0  0  0  0  0  0  0
   -0.7210   -6.3835    3.8553 C   0  0  0  0  0  0  0  0  0  0  0  0
   -0.7188   -5.4601    5.0818 C   0  0  0  0  0  0  0  0  0  0  0  0
   -1.8008   -5.1265    5.9512 C   0  0  0  0  0  0  0  0  0  0  0  0
   -2.5396   -3.9793    5.5252 C   0  0  0  0  0  0  0  0  0  0  0  0
   -1.5070   -3.1306    5.0241 C   0  0  0  0  0  0  0  0  0  0  0  0
   -0.3009   -3.1771    5.7855 C   0  0  0  0  0  0  0  0  0  0  0  0
    0.2335   -4.4526    5.4191 C   0  0  0  0  0  0  0  0  0  0  0  0
    0.0583   -2.2503    6.9500 C   0  0  0  0  0  0  0  0  0  0  0  0
    0.2268   -0.8783    6.4731 N   0  0  0  0  0  0  0  0  0  0  0  0
    0.1543    0.3258    5.7036 C   0  0  0  0  0  0  0  0  0  0  0  0
    1.2971    0.6866    6.0699 O   0  0  0  0  0  0  0  0  0  0  0  0
    0.0887    1.1859    4.5149 C   0  0  0  0  0  0  0  0  0  0  0  0
    0.9101    2.0013    5.0035 O   0  0  0  0  0  0  0  0  0  0  0  0
   -0.0120    1.8541    3.2110 C   0  0  0  0  0  0  0  0  0  0  0  0
    0.4400    2.9371    3.6912 O   0  0  0  0  0  0  0  0  0  0  0  0
   -0.2446    2.3358    1.9188 O   0  0  0  0  0  0  0  0  0  0  0  0
   -0.4806    2.8887    0.6336 C   0  0  0  0  0  0  0  0  0  0  0  0
   -0.6576    1.8191   -0.3136 N   0  0  0  0  0  0  0  0  0  0  0  0
   -0.5419    2.2681   -1.6909 C   0  0  0  0  0  0  0  0  0  0  0  0
    0.1848    1.2191   -2.5491 C   0  0  0  0  0  0  0  0  0  0  0  0
    1.4681    0.6402   -2.3127 C   0  0  0  0  0  0  0  0  0  0  0  0
    2.5177    1.1729   -3.1218 C   0  0  0  0  0  0  0  0  0  0  0  0
    2.0947    0.7336   -4.4132 C   0  0  0  0  0  0  0  0  0  0  0  0
    0.8656    1.2962   -4.8773 C   0  0  0  0  0  0  0  0  0  0  0  0
   -0.0532    0.8092   -3.8980 C   0  0  0  0  0  0  0  0  0  0  0  0
    0.6789    2.3670   -5.9655 C   0  0  0  0  0  0  0  0  0  0  0  0
    1.3578    1.9570   -7.1998 N   0  0  0  0  0  0  0  0  0  0  0  0
    2.4923    1.4167   -7.9087 C   0  0  0  0  0  0  0  0  0  0  0  0
    1.7887    0.6291   -8.5964 O   0  0  0  0  0  0  0  0  0  0  0  0
    3.7279    0.6076   -7.9892 C   0  0  0  0  0  0  0  0  0  0  0  0
    3.3092   -0.1631   -8.8785 O   0  0  0  0  0  0  0  0  0  0  0  0
    4.8098   -0.2621   -7.4913 C   0  0  0  0  0  0  0  0  0  0  0  0
    4.7093   -1.0857   -8.4229 O   0  0  0  0  0  0  0  0  0  0  0  0
    5.4337   -1.1099   -6.5664 O   0  0  0  0  0  0  0  0  0  0  0  0
    5.8770   -1.9901   -5.5657 C   0  0  0  0  0  0  0  0  0  0  0  0
    5.0406   -1.9615   -4.3726 N   0  0  0  0  0  0  0  0  0  0  0  0
    5.7593   -1.6347   -3.1852 C   0  0  0  0  0  0  0  0  0  0  0  0
    3.5817    2.2227   -2.7662 C   0  0  0  0  0  0  0  0  0  0  0  0
    3.1257    3.5666   -2.9437 N   0  0  0  0  0  0  0  0  0  0  0  0
    2.3443    4.7476   -3.1705 C   0  0  0  0  0  0  0  0  0  0  0  0
    2.8772    5.0773   -4.2553 O   0  0  0  0  0  0  0  0  0  0  0  0
    1.1942    5.6524   -3.3303 C   0  0  0  0  0  0  0  0  0  0  0  0
    1.4249    5.9953   -4.5068 O   0  0  0  0  0  0  0  0  0  0  0  0
   -0.2205    6.0544   -3.2907 C   0  0  0  0  0  0  0  0  0  0  0  0
   -0.2739    6.2974   -4.5330 O   0  0  0  0  0  0  0  0  0  0  0  0
   -1.6053    6.0408   -3.0847 O   0  0  0  0  0  0  0  0  0  0  0  0
   -3.0199    5.9848   -2.9331 C   0  0  0  0  0  0  0  0  0  0  0  0
   -3.4327    4.7507   -2.2678 N   0  0  0  0  0  0  0  0  0  0  0  0
   -4.5177    4.1078   -2.9455 C   0  0  0  0  0  0  0  0  0  0  0  0
   -5.5583    3.4849   -2.0022 C   0  0  0  0  0  0  0  0  0  0  0  0
   -6.1377    2.1748   -1.9995 C   0  0  0  0  0  0  0  0  0  0  0  0
   -5.7189    1.3020   -0.9485 C   0  0  0  0  0  0  0  0  0  0  0  0
   -6.1818    2.0270    0.1961 C   0  0  0  0  0  0  0  0  0  0  0  0
   -5.5879    3.3117    0.3909 C   0  0  0  0  0  0  0  0  0  0  0  0
   -6.0656    3.9979   -0.7716 C   0  0  0  0  0  0  0  0  0  0  0  0
   -4.5030    3.6908    1.4103 C   0  0  0  0  0  0  0  0  0  0  0  0
   -5.0309    3.6358    2.7736 N   0  0  0  0  0  0  0  0  0  0  0  0
   -3.8869    3.6402    3.6492 C   0  0  0  0  0  0  0  0  0  0  0  0
   -4.1949    2.7591    4.7247 O   0  0  0  0  0  0  0  0  0  0  0  0
   -4.3829    1.7110    5.6308 C   0  0  0  0  0  0  0  0  0  0  0  0
   -3.6091    2.1589    6.5186 O   0  0  0  0  0  0  0  0  0  0  0  0
   -4.4925    0.4121    6.3073 C   0  0  0  0  0  0  0  0  0  0  0  0
   -3.5222    0.5859    7.0939 O   0  0  0  0  0  0  0  0  0  0  0  0
   -4.4581   -1.0483    6.4616 C   0  0  0  0  0  0  0  0  0  0  0  0
   -3.6646   -1.0655    7.4323 O   0  0  0  0  0  0  0  0  0  0  0  0
   -4.3663   -2.4633    6.2508 N   0  0  0  0  0  0  0  0  0  0  0  0
   -4.0369   -3.7006    5.5508 C   0  0  0  0  0  0  0  0  0  0  0  0
   -4.8446    0.0414   -1.0424 C   0  0  0  0  0  0  0  0  0  0  0  0
   -3.7066    0.1812   -1.8995 N   0  0  0  0  0  0  0  0  0  0  0  0
   -3.6477   -0.9196   -2.8226 C   0  0  0  0  0  0  0  0  0  0  0  0
   -2.5885   -1.8276   -2.5229 O   0  0  0  0  0  0  0  0  0  0  0  0
   -1.4012   -2.5690   -2.5871 C   0  0  0  0  0  0  0  0  0  0  0  0
   -1.7977   -3.4037   -3.4562 O   0  0  0  0  0  0  0  0  0  0  0  0
   -0.0008   -2.9720   -2.8005 C   0  0  0  0  0  0  0  0  0  0  0  0
   -0.1668   -3.2279   -4.0327 O   0  0  0  0  0  0  0  0  0  0  0  0
    2.7488   -4.2090   -3.6378 H   0  0  0  0  0  0  0  0  0  0  0  0
    3.5893   -5.9042   -3.3828 H   0  0  0  0  0  0  0  0  0  0  0  0
    2.9911   -6.1611   -1.8101 H   0  0  0  0  0  0  0  0  0  0  0  0
    6.4945   -4.7904   -3.2335 H   0  0  0  0  0  0  0  0  0  0  0  0
    7.2448   -2.4570   -0.4696 H   0  0  0  0  0  0  0  0  0  0  0  0
    5.2642   -5.5031    0.2205 H   0  0  0  0  0  0  0  0  0  0  0  0
    4.9148   -2.2207    1.8333 H   0  0  0  0  0  0  0  0  0  0  0  0
    3.4921   -3.0325    1.2687 H   0  0  0  0  0  0  0  0  0  0  0  0
    3.1509   -1.6678   -0.4955 H   0  0  0  0  0  0  0  0  0  0  0  0
    3.2634   -0.8936    2.3000 H   0  0  0  0  0  0  0  0  0  0  0  0
    2.8031    0.3393    1.0501 H   0  0  0  0  0  0  0  0  0  0  0  0
   -1.9259   -5.3985    2.8822 H   0  0  0  0  0  0  0  0  0  0  0  0
   -1.4862   -7.1553    3.9170 H   0  0  0  0  0  0  0  0  0  0  0  0
    0.2154   -6.9982    3.8160 H   0  0  0  0  0  0  0  0  0  0  0  0
   -2.0786   -5.7516    6.8025 H   0  0  0  0  0  0  0  0  0  0  0  0
   -1.6036   -2.5038    4.1323 H   0  0  0  0  0  0  0  0  0  0  0  0
    1.3098   -4.6472    5.4246 H   0  0  0  0  0  0  0  0  0  0  0  0
    1.0519   -2.4604    7.3660 H   0  0  0  0  0  0  0  0  0  0  0  0
   -0.6196   -2.3325    7.8034 H   0  0  0  0  0  0  0  0  0  0  0  0
    0.9452   -0.5786    7.1446 H   0  0  0  0  0  0  0  0  0  0  0  0
    0.4467    3.4348    0.3378 H   0  0  0  0  0  0  0  0  0  0  0  0
   -1.2988    3.6224    0.6208 H   0  0  0  0  0  0  0  0  0  0  0  0
   -1.4707    1.2139   -0.1358 H   0  0  0  0  0  0  0  0  0  0  0  0
   -0.1085    3.2682   -1.7913 H   0  0  0  0  0  0  0  0  0  0  0  0
   -1.5965    2.3658   -1.9667 H   0  0  0  0  0  0  0  0  0  0  0  0
    1.6490   -0.0943   -1.5212 H   0  0  0  0  0  0  0  0  0  0  0  0
    2.7083    0.0684   -5.0328 H   0  0  0  0  0  0  0  0  0  0  0  0
   -0.9320    0.2121   -4.1727 H   0  0  0  0  0  0  0  0  0  0  0  0
    0.9617    3.3657   -5.6328 H   0  0  0  0  0  0  0  0  0  0  0  0
   -0.3528    2.4270   -6.3184 H   0  0  0  0  0  0  0  0  0  0  0  0
    0.6857    1.2108   -7.4451 H   0  0  0  0  0  0  0  0  0  0  0  0
    6.9120   -1.7139   -5.2413 H   0  0  0  0  0  0  0  0  0  0  0  0
    5.9555   -2.9902   -6.0133 H   0  0  0  0  0  0  0  0  0  0  0  0
    4.6856   -2.9475   -4.2589 H   0  0  0  0  0  0  0  0  0  0  0  0
    5.1358   -0.8637   -2.7203 H   0  0  0  0  0  0  0  0  0  0  0  0
    6.7358   -1.2201   -3.5490 H   0  0  0  0  0  0  0  0  0  0  0  0
    3.9334    2.1210   -1.7334 H   0  0  0  0  0  0  0  0  0  0  0  0
    4.5240    2.0454   -3.3307 H   0  0  0  0  0  0  0  0  0  0  0  0
    3.5397    3.6302   -3.9106 H   0  0  0  0  0  0  0  0  0  0  0  0
   -3.5145    6.1054   -3.9114 H   0  0  0  0  0  0  0  0  0  0  0  0
   -3.2921    6.8855   -2.3321 H   0  0  0  0  0  0  0  0  0  0  0  0
   -3.6688    5.0176   -1.2975 H   0  0  0  0  0  0  0  0  0  0  0  0
   -5.0319    4.7840   -3.6775 H   0  0  0  0  0  0  0  0  0  0  0  0
   -4.0095    3.3707   -3.5695 H   0  0  0  0  0  0  0  0  0  0  0  0
   -6.8165    1.8458   -2.7970 H   0  0  0  0  0  0  0  0  0  0  0  0
   -6.8850    1.5902    0.9155 H   0  0  0  0  0  0  0  0  0  0  0  0
   -6.6640    4.9119   -0.7028 H   0  0  0  0  0  0  0  0  0  0  0  0
   -3.5756    3.1248    1.2822 H   0  0  0  0  0  0  0  0  0  0  0  0
   -4.2023    4.7382    1.3328 H   0  0  0  0  0  0  0  0  0  0  0  0
   -5.6226    4.4866    2.9533 H   0  0  0  0  0  0  0  0  0  0  0  0
   -2.9439    3.3621    3.1393 H   0  0  0  0  0  0  0  0  0  0  0  0
   -3.7762    4.6522    4.1144 H   0  0  0  0  0  0  0  0  0  0  0  0
   -3.6640   -2.6566    7.0013 H   0  0  0  0  0  0  0  0  0  0  0  0
   -4.6113   -4.4323    6.1211 H   0  0  0  0  0  0  0  0  0  0  0  0
   -4.4874   -3.7422    4.5330 H   0  0  0  0  0  0  0  0  0  0  0  0
   -5.4866   -0.8412   -1.3011 H   0  0  0  0  0  0  0  0  0  0  0  0
   -4.3955   -0.2350   -0.0860 H   0  0  0  0  0  0  0  0  0  0  0  0
   -3.6369    1.1000   -2.3817 H   0  0  0  0  0  0  0  0  0  0  0  0
   -4.5967   -1.5047   -2.8516 H   0  0  0  0  0  0  0  0  0  0  0  0
   -3.5415   -0.4929   -3.8520 H   0  0  0  0  0  0  0  0  0  0  0  0
  1  2  2  0
  2  3  1  0
  3  4  1  0
  4  5  1  0
  5  6  2  0
  6  7  1  0
  7  8  2  0
  8  9  1  0
  9 10  2  0
  9 11  1  0
 11 12  1  0
 12 13  1  0
 13 14  1  0
 14 15  1  0
 15 16  2  0
 15 17  1  0
 17 18  2  0
 17 19  1  0
 19 20  2  0
 19 21  1  0
 21 22  1  0
 22 23  1  0
 23 24  2  0
 24 25  1  0
 25 26  2  0
 26 27  1  0
 27 28  2  0
 27 29  1  0
 29 30  1  0
 30 31  1  0
 31 32  2  0
 31 33  1  0
 33 34  2  0
 33 35  1  0
 35 36  2  0
 35 37  1  0
 37 38  1  0
 38 39  1  0
 39 40  1  0
 40 41  1  0
 41 42  1  0
 42 43  2  0
 43 44  1  0
 44 45  2  0
 45 46  1  0
 45 47  1  0
 47 48  1  0
 48 49  1  0
 49 50  2  0
 49 51  1  0
 51 52  2  0
 51 53  1  0
 53 54  2  0
 53 55  1  0
 55 56  1  0
 56 57  1  0
 57 58  1  0
 43 59  1  0
 59 60  1  0
 60 61  1  0
 61 62  2  0
 61 63  1  0
 63 64  2  0
 63 65  1  0
 65 66  2  0
 65 67  1  0
 67 68  1  0
 68 69  1  0
 69 70  1  0
 70 71  1  0
 71 72  1  0
 72 73  2  0
 73 74  1  0
 74 75  2  0
 75 76  1  0
 75 77  1  0
 77 78  1  0
 78 79  1  0
 79 80  1  0
 80 81  1  0
 81 82  2  0
 81 83  1  0
 83 84  2  0
 83 85  1  0
 85 86  2  0
 85 87  1  0
 87 88  1  0
 73 89  1  0
 89 90  1  0
 90 91  1  0
 91 92  1  0
 92 93  1  0
 93 94  2  0
 93 95  1  0
 95 96  2  0
 95  2  1  0
 10  5  1  0
 28 23  1  0
 46 41  2  0
 76 71  2  0
 58  7  1  0
 88 25  1  0
  3 97  1  0
  4 98  1  0
  4 99  1  0
  6100  1  0
  8101  1  0
 10102  1  0
 11103  1  0
 11104  1  0
 12105  1  0
 13106  1  0
 13107  1  0
 21108  1  0
 22109  1  0
 22110  1  0
 24111  1  0
 26112  1  0
 28113  1  0
 29114  1  0
 29115  1  0
 30116  1  0
 38117  1  0
 38118  1  0
 39119  1  0
 40120  1  0
 40121  1  0
 42122  1  0
 44123  1  0
 46124  1  0
 47125  1  0
 47126  1  0
 48127  1  0
 56128  1  0
 56129  1  0
 57130  1  0
 58131  1  0
 58132  1  0
 59133  1  0
 59134  1  0
 60135  1  0
 68136  1  0
 68137  1  0
 69138  1  0
 70139  1  0
 70140  1  0
 72141  1  0
 74142  1  0
 76143  1  0
 77144  1  0
 77145  1  0
 78146  1  0
 79147  1  0
 79148  1  0
 87149  1  0
 88150  1  0
 88151  1  0
 89152  1  0
 89153  1  0
 90154  1  0
 91155  1  0
 91156  1  0
M  END
