
     RDKit          3D

156162  0  0  0  0  0  0  0  0999 V2000
    1.2496   -6.3536   -0.6345 S   0  0  0  0  0  0  0  0  0  0  0  0
    2.0015   -5.8985    0.5838 C   0  0  0  0  0  0  0  0  0  0  0  0
    3.1044   -5.3604   -0.0870 O   0  0  0  0  0  0  0  0  0  0  0  0
    4.2196   -4.8282   -0.7999 C   0  0  0  0  0  0  0  0  0  0  0  0
    4.8227   -3.7126   -0.1457 N   0  0  0  0  0  0  0  0  0  0  0  0
    6.0639   -4.1598    0.4287 C   0  0  0  0  0  0  0  0  0  0  0  0
    6.8333   -3.1632    1.2850 C   0  0  0  0  0  0  0  0  0  0  0  0
    7.1497   -3.1263    2.6925 C   0  0  0  0  0  0  0  0  0  0  0  0
    6.1009   -2.5864    3.4951 C   0  0  0  0  0  0  0  0  0  0  0  0
    5.2339   -1.9373    2.5487 C   0  0  0  0  0  0  0  0  0  0  0  0
    5.9913   -0.9400    1.8360 C   0  0  0  0  0  0  0  0  0  0  0  0
    6.9514   -1.7378    1.1430 C   0  0  0  0  0  0  0  0  0  0  0  0
    6.0593    0.5182    2.1099 C   0  0  0  0  0  0  0  0  0  0  0  0
    5.4120    1.3650    1.1060 N   0  0  0  0  0  0  0  0  0  0  0  0
    6.1804    2.5439    0.8075 C   0  0  0  0  0  0  0  0  0  0  0  0
    5.6698    3.0878   -0.4077 O   0  0  0  0  0  0  0  0  0  0  0  0
    5.4872    3.6454   -1.6771 C   0  0  0  0  0  0  0  0  0  0  0  0
    5.1511    5.1558   -1.1780 S   0  0  0  0  0  0  0  0  0  0  0  0
    5.2412    3.9671   -3.4265 S   0  0  0  0  0  0  0  0  0  0  0  0
    3.6432    4.8014   -3.7079 C   0  0  0  0  0  0  0  0  0  0  0  0
    2.5622    3.8941   -3.5980 N   0  0  0  0  0  0  0  0  0  0  0  0
    1.6139    3.8453   -4.6756 C   0  0  0  0  0  0  0  0  0  0  0  0
    0.1828    4.1819   -4.3813 C   0  0  0  0  0  0  0  0  0  0  0  0
   -0.6671    3.4619   -3.4886 C   0  0  0  0  0  0  0  0  0  0  0  0
   -1.8801    4.1462   -3.1174 C   0  0  0  0  0  0  0  0  0  0  0  0
   -1.1857    5.1497   -2.3510 C   0  0  0  0  0  0  0  0  0  0  0  0
   -0.3662    6.0441   -3.1064 C   0  0  0  0  0  0  0  0  0  0  0  0
   -0.4202    5.4875   -4.4320 C   0  0  0  0  0  0  0  0  0  0  0  0
    0.6281    6.9951   -2.5735 C   0  0  0  0  0  0  0  0  0  0  0  0
    0.1111    8.3388   -2.2837 N   0  0  0  0  0  0  0  0  0  0  0  0
   -0.5586    8.3453   -0.9848 C   0  0  0  0  0  0  0  0  0  0  0  0
    0.6017    8.0732    0.3729 S   0  0  0  0  0  0  0  0  0  0  0  0
    0.6540    6.3525    0.8691 C   0  0  0  0  0  0  0  0  0  0  0  0
    2.0175    6.4769    1.7373 S   0  0  0  0  0  0  0  0  0  0  0  0
    0.5502    4.9585    0.8972 O   0  0  0  0  0  0  0  0  0  0  0  0
    0.1094    3.6195    0.9700 C   0  0  0  0  0  0  0  0  0  0  0  0
    1.2420    2.7621    0.9879 N   0  0  0  0  0  0  0  0  0  0  0  0
    1.7475    2.3046   -0.2580 C   0  0  0  0  0  0  0  0  0  0  0  0
    1.9022    0.7983   -0.4570 C   0  0  0  0  0  0  0  0  0  0  0  0
    1.9728   -0.2696    0.5054 C   0  0  0  0  0  0  0  0  0  0  0  0
    0.7167   -0.7858    0.9479 C   0  0  0  0  0  0  0  0  0  0  0  0
   -0.2205   -0.1447    0.0630 C   0  0  0  0  0  0  0  0  0  0  0  0
    0.0886   -0.6013   -1.2651 C   0  0  0  0  0  0  0  0  0  0  0  0
    1.3968   -0.0738   -1.4854 C   0  0  0  0  0  0  0  0  0  0  0  0
   -0.5831   -1.6866   -2.0163 C   0  0  0  0  0  0  0  0  0  0  0  0
   -1.4616   -1.1972   -3.0867 N   0  0  0  0  0  0  0  0  0  0  0  0
   -2.6582   -1.9434   -3.2211 C   0  0  0  0  0  0  0  0  0  0  0  0
   -4.1564   -0.9456   -3.3178 S   0  0  0  0  0  0  0  0  0  0  0  0
   -5.5846   -1.8196   -2.6667 C   0  0  0  0  0  0  0  0  0  0  0  0
   -5.0619   -3.2547   -3.2705 S   0  0  0  0  0  0  0  0  0  0  0  0
   -6.6321   -2.3889   -1.9793 O   0  0  0  0  0  0  0  0  0  0  0  0
   -7.8493   -2.6872   -1.3464 C   0  0  0  0  0  0  0  0  0  0  0  0
   -7.7705   -2.9273    0.0395 N   0  0  0  0  0  0  0  0  0  0  0  0
   -7.7902   -4.2593    0.5041 C   0  0  0  0  0  0  0  0  0  0  0  0
   -6.8040   -4.6686    1.5957 C   0  0  0  0  0  0  0  0  0  0  0  0
   -6.1617   -3.8685    2.6032 C   0  0  0  0  0  0  0  0  0  0  0  0
   -4.9316   -3.2487    2.2251 C   0  0  0  0  0  0  0  0  0  0  0  0
   -4.6851   -3.8130    0.9231 C   0  0  0  0  0  0  0  0  0  0  0  0
   -4.4994   -5.2266    1.1047 C   0  0  0  0  0  0  0  0  0  0  0  0
   -5.7557   -5.6601    1.6243 C   0  0  0  0  0  0  0  0  0  0  0  0
   -3.2077   -5.9255    1.1324 C   0  0  0  0  0  0  0  0  0  0  0  0
   -2.0009   -5.1610    1.4537 N   0  0  0  0  0  0  0  0  0  0  0  0
   -0.8624   -5.5050    0.6934 C   0  0  0  0  0  0  0  0  0  0  0  0
    0.5536   -6.0843    1.6337 S   0  0  0  0  0  0  0  0  0  0  0  0
   -3.9564   -2.5737    3.1086 C   0  0  0  0  0  0  0  0  0  0  0  0
   -4.1480   -1.1235    3.2318 N   0  0  0  0  0  0  0  0  0  0  0  0
   -3.3348   -0.3595    2.3427 C   0  0  0  0  0  0  0  0  0  0  0  0
   -4.1319    0.4785    1.5488 O   0  0  0  0  0  0  0  0  0  0  0  0
   -4.5438    1.3200    0.5418 C   0  0  0  0  0  0  0  0  0  0  0  0
   -4.5903    2.7023    1.4270 S   0  0  0  0  0  0  0  0  0  0  0  0
   -5.0750    2.1358   -0.9409 S   0  0  0  0  0  0  0  0  0  0  0  0
   -3.6783    2.7235   -1.9455 C   0  0  0  0  0  0  0  0  0  0  0  0
   -4.2640    3.4602   -3.0649 N   0  0  0  0  0  0  0  0  0  0  0  0
   -3.2398    4.2001   -3.8007 C   0  0  0  0  0  0  0  0  0  0  0  0
    0.4885   -1.9758    1.7842 C   0  0  0  0  0  0  0  0  0  0  0  0
    0.3696   -1.6956    3.2233 N   0  0  0  0  0  0  0  0  0  0  0  0
    1.2690   -2.4886    4.0132 C   0  0  0  0  0  0  0  0  0  0  0  0
    1.6104   -1.6272    5.5620 S   0  0  0  0  0  0  0  0  0  0  0  0
    3.0804   -0.6002    5.4540 C   0  0  0  0  0  0  0  0  0  0  0  0
    2.5020    0.5412    6.4487 S   0  0  0  0  0  0  0  0  0  0  0  0
    4.4412   -0.3359    5.6440 O   0  0  0  0  0  0  0  0  0  0  0  0
    5.8074   -0.1007    5.9780 C   0  0  0  0  0  0  0  0  0  0  0  0
    6.7111   -1.0115    5.3568 N   0  0  0  0  0  0  0  0  0  0  0  0
    6.1417   -2.2577    4.9284 C   0  0  0  0  0  0  0  0  0  0  0  0
    4.9189   -5.6924   -0.9284 H   0  0  0  0  0  0  0  0  0  0  0  0
    3.9201   -4.5378   -1.8308 H   0  0  0  0  0  0  0  0  0  0  0  0
    5.0070   -2.9368   -0.8041 H   0  0  0  0  0  0  0  0  0  0  0  0
    6.7112   -4.6599   -0.3380 H   0  0  0  0  0  0  0  0  0  0  0  0
    5.6699   -5.0392    0.9673 H   0  0  0  0  0  0  0  0  0  0  0  0
    8.0110   -3.7338    3.0375 H   0  0  0  0  0  0  0  0  0  0  0  0
    4.1752   -2.1681    2.3587 H   0  0  0  0  0  0  0  0  0  0  0  0
    7.6251   -1.3589    0.3444 H   0  0  0  0  0  0  0  0  0  0  0  0
    5.5043    0.8923    3.0150 H   0  0  0  0  0  0  0  0  0  0  0  0
    7.0177    0.9695    2.4766 H   0  0  0  0  0  0  0  0  0  0  0  0
    4.4137    1.5330    1.2880 H   0  0  0  0  0  0  0  0  0  0  0  0
    7.2355    2.2386    0.7088 H   0  0  0  0  0  0  0  0  0  0  0  0
    6.1413    3.3026    1.6295 H   0  0  0  0  0  0  0  0  0  0  0  0
    3.5638    5.5654   -2.8936 H   0  0  0  0  0  0  0  0  0  0  0  0
    3.6445    5.3651   -4.6522 H   0  0  0  0  0  0  0  0  0  0  0  0
    2.9039    2.9299   -3.3987 H   0  0  0  0  0  0  0  0  0  0  0  0
    1.7770    2.9814   -5.3788 H   0  0  0  0  0  0  0  0  0  0  0  0
    2.1346    4.5555   -5.3762 H   0  0  0  0  0  0  0  0  0  0  0  0
   -0.6177    2.3739   -3.2729 H   0  0  0  0  0  0  0  0  0  0  0  0
   -1.5151    5.3041   -1.3014 H   0  0  0  0  0  0  0  0  0  0  0  0
   -0.8661    5.9621   -5.3163 H   0  0  0  0  0  0  0  0  0  0  0  0
    1.3766    6.6634   -1.8092 H   0  0  0  0  0  0  0  0  0  0  0  0
    1.4427    7.3395   -3.2706 H   0  0  0  0  0  0  0  0  0  0  0  0
   -0.6305    8.5139   -2.9865 H   0  0  0  0  0  0  0  0  0  0  0  0
   -0.9613    9.3818   -0.8635 H   0  0  0  0  0  0  0  0  0  0  0  0
   -1.4301    7.6756   -0.9562 H   0  0  0  0  0  0  0  0  0  0  0  0
   -0.5458    3.3259    0.1341 H   0  0  0  0  0  0  0  0  0  0  0  0
   -0.4747    3.4304    1.9061 H   0  0  0  0  0  0  0  0  0  0  0  0
    1.9826    3.1459    1.6233 H   0  0  0  0  0  0  0  0  0  0  0  0
    2.7199    2.8448   -0.4059 H   0  0  0  0  0  0  0  0  0  0  0  0
    1.0723    2.8200   -0.9425 H   0  0  0  0  0  0  0  0  0  0  0  0
    2.9504   -0.4283    1.0103 H   0  0  0  0  0  0  0  0  0  0  0  0
   -1.0113    0.5620    0.3460 H   0  0  0  0  0  0  0  0  0  0  0  0
    1.9423   -0.0843   -2.4532 H   0  0  0  0  0  0  0  0  0  0  0  0
   -1.3145   -2.3292   -1.4496 H   0  0  0  0  0  0  0  0  0  0  0  0
   -0.0117   -2.5920   -2.3461 H   0  0  0  0  0  0  0  0  0  0  0  0
   -0.9440   -0.9900   -3.9556 H   0  0  0  0  0  0  0  0  0  0  0  0
   -2.5928   -2.5171   -4.1806 H   0  0  0  0  0  0  0  0  0  0  0  0
   -2.7561   -2.7312   -2.4314 H   0  0  0  0  0  0  0  0  0  0  0  0
   -8.6306   -1.9067   -1.5292 H   0  0  0  0  0  0  0  0  0  0  0  0
   -8.2447   -3.6107   -1.8367 H   0  0  0  0  0  0  0  0  0  0  0  0
   -7.3581   -2.2083    0.6352 H   0  0  0  0  0  0  0  0  0  0  0  0
   -7.6931   -4.7907   -0.4499 H   0  0  0  0  0  0  0  0  0  0  0  0
   -8.8499   -4.4938    0.7893 H   0  0  0  0  0  0  0  0  0  0  0  0
   -6.7673   -3.5940    3.4943 H   0  0  0  0  0  0  0  0  0  0  0  0
   -4.6750   -3.2599   -0.0264 H   0  0  0  0  0  0  0  0  0  0  0  0
   -6.0693   -6.7134    1.7868 H   0  0  0  0  0  0  0  0  0  0  0  0
   -2.9136   -6.4095    0.1575 H   0  0  0  0  0  0  0  0  0  0  0  0
   -2.9558   -6.7064    1.8566 H   0  0  0  0  0  0  0  0  0  0  0  0
   -1.8810   -4.9490    2.4439 H   0  0  0  0  0  0  0  0  0  0  0  0
   -0.5315   -4.5988    0.1253 H   0  0  0  0  0  0  0  0  0  0  0  0
   -1.1483   -6.2851   -0.0431 H   0  0  0  0  0  0  0  0  0  0  0  0
   -2.8798   -2.5622    2.7799 H   0  0  0  0  0  0  0  0  0  0  0  0
   -3.6732   -3.0329    4.0917 H   0  0  0  0  0  0  0  0  0  0  0  0
   -3.9764   -0.8910    4.2361 H   0  0  0  0  0  0  0  0  0  0  0  0
   -2.6018    0.2182    2.9472 H   0  0  0  0  0  0  0  0  0  0  0  0
   -2.7230   -1.0808    1.7441 H   0  0  0  0  0  0  0  0  0  0  0  0
   -3.0098    3.3887   -1.3733 H   0  0  0  0  0  0  0  0  0  0  0  0
   -3.0574    1.8984   -2.3309 H   0  0  0  0  0  0  0  0  0  0  0  0
   -4.9402    4.1291   -2.6111 H   0  0  0  0  0  0  0  0  0  0  0  0
   -3.3060    3.8040   -4.8182 H   0  0  0  0  0  0  0  0  0  0  0  0
   -3.6680    5.1897   -3.9943 H   0  0  0  0  0  0  0  0  0  0  0  0
   -0.5007   -2.5056    1.6830 H   0  0  0  0  0  0  0  0  0  0  0  0
    1.0465   -2.9290    1.5989 H   0  0  0  0  0  0  0  0  0  0  0  0
    0.6862   -0.6942    3.3180 H   0  0  0  0  0  0  0  0  0  0  0  0
    0.7130   -3.4215    4.2873 H   0  0  0  0  0  0  0  0  0  0  0  0
    2.1709   -2.8231    3.4838 H   0  0  0  0  0  0  0  0  0  0  0  0
    5.9461   -0.1932    7.0849 H   0  0  0  0  0  0  0  0  0  0  0  0
    5.9979    0.9617    5.7429 H   0  0  0  0  0  0  0  0  0  0  0  0
    7.4025   -0.5988    4.7156 H   0  0  0  0  0  0  0  0  0  0  0  0
    5.1556   -2.2571    5.4769 H   0  0  0  0  0  0  0  0  0  0  0  0
    6.5286   -3.0124    5.6613 H   0  0  0  0  0  0  0  0  0  0  0  0
  1  2  2  0
  2  3  1  0
  3  4  1  0
  4  5  1  0
  5  6  1  0
  6  7  1  0
  7  8  2  0
  8  9  1  0
  9 10  2  0
 10 11  1  0
 11 12  2  0
 11 13  1  0
 13 14  1  0
 14 15  1  0
 15 16  1  0
 16 17  1  0
 17 18  2  0
 17 19  1  0
 19 20  1  0
 20 21  1  0
 21 22  1  0
 22 23  1  0
 23 24  1  0
 24 25  2  0
 25 26  1  0
 26 27  2  0
 27 28  1  0
 27 29  1  0
 29 30  1  0
 30 31  1  0
 31 32  1  0
 32 33  1  0
 33 34  2  0
 33 35  1  0
 35 36  1  0
 36 37  1  0
 37 38  1  0
 38 39  1  0
 39 40  2  0
 40 41  1  0
 41 42  2  0
 42 43  1  0
 43 44  2  0
 43 45  1  0
 45 46  1  0
 46 47  1  0
 47 48  1  0
 48 49  1  0
 49 50  2  0
 49 51  1  0
 51 52  1  0
 52 53  1  0
 53 54  1  0
 54 55  1  0
 55 56  1  0
 56 57  2  0
 57 58  1  0
 58 59  2  0
 59 60  1  0
 59 61  1  0
 61 62  1  0
 62 63  1  0
 63 64  1  0
 57 65  1  0
 65 66  1  0
 66 67  1  0
 67 68  1  0
 68 69  1  0
 69 70  2  0
 69 71  1  0
 71 72  1  0
 72 73  1  0
 73 74  1  0
 41 75  1  0
 75 76  1  0
 76 77  1  0
 77 78  1  0
 78 79  1  0
 79 80  2  0
 79 81  1  0
 81 82  1  0
 82 83  1  0
 83 84  1  0
 64  2  1  0
 12  7  1  0
 28 23  2  0
 44 39  1  0
 60 55  2  0
 84  9  1  0
 74 25  1  0
  4 85  1  0
  4 86  1  0
  5 87  1  0
  6 88  1  0
  6 89  1  0
  8 90  1  0
 10 91  1  0
 12 92  1  0
 13 93  1  0
 13 94  1  0
 14 95  1  0
 15 96  1  0
 15 97  1  0
 20 98  1  0
 20 99  1  0
 21100  1  0
 22101  1  0
 22102  1  0
 24103  1  0
 26104  1  0
 28105  1  0
 29106  1  0
 29107  1  0
 30108  1  0
 31109  1  0
 31110  1  0
 36111  1  0
 36112  1  0
 37113  1  0
 38114  1  0
 38115  1  0
 40116  1  0
 42117  1  0
 44118  1  0
 45119  1  0
 45120  1  0
 46121  1  0
 47122  1  0
 47123  1  0
 52124  1  0
 52125  1  0
 53126  1  0
 54127  1  0
 54128  1  0
 56129  1  0
 58130  1  0
 60131  1  0
 61132  1  0
 61133  1  0
 62134  1  0
 63135  1  0
 63136  1  0
 65137  1  0
 65138  1  0
 66139  1  0
 67140  1  0
 67141  1  0
 72142  1  0
 72143  1  0
 73144  1  0
 74145  1  0
 74146  1  0
 75147  1  0
 75148  1  0
 76149  1  0
 77150  1  0
 77151  1  0
 82152  1  0
 82153  1  0
 83154  1  0
 84155  1  0
 84156  1  0
M  END
