
     RDKit          3D

318342  0  0  0  0  0  0  0  0999 V2000
    3.1715   -0.0206   -6.8762 C   0  0  0  0  0  0  0  0  0  0  0  0
    2.8166    1.3006   -6.9181 C   0  0  0  0  0  0  0  0  0  0  0  0
    3.2414    2.1478   -5.9019 C   0  0  0  0  0  0  0  0  0  0  0  0
    4.1640    1.6717   -4.9750 C   0  0  0  0  0  0  0  0  0  0  0  0
    4.7745    0.4348   -5.1077 C   0  0  0  0  0  0  0  0  0  0  0  0
    4.1501   -0.4431   -5.9857 C   0  0  0  0  0  0  0  0  0  0  0  0
    6.1291   -0.0671   -4.8219 C   0  0  0  0  0  0  0  0  0  0  0  0
    6.7447    0.4890   -3.5737 C   0  0  0  0  0  0  0  0  0  0  0  0
    7.0750    1.9437   -3.6965 C   0  0  0  0  0  0  0  0  0  0  0  0
    8.2109    2.3045   -2.9815 C   0  0  0  0  0  0  0  0  0  0  0  0
    8.5694    3.6470   -2.9662 C   0  0  0  0  0  0  0  0  0  0  0  0
    7.7311    4.6114   -3.5126 C   0  0  0  0  0  0  0  0  0  0  0  0
    6.4414    4.2889   -3.8293 C   0  0  0  0  0  0  0  0  0  0  0  0
    6.1139    2.9365   -3.8211 C   0  0  0  0  0  0  0  0  0  0  0  0
    4.7780    2.8048   -4.3399 N   0  0  0  0  0  0  0  0  0  0  0  0
    3.8817    3.8943   -4.0588 C   0  0  0  0  0  0  0  0  0  0  0  0
    2.5504    3.4265   -3.4662 C   0  0  0  0  0  0  0  0  0  0  0  0
    2.1136    4.2110   -2.2768 C   0  0  0  0  0  0  0  0  0  0  0  0
    1.7677    3.4071   -1.1037 N   0  0  0  0  0  0  0  0  0  0  0  0
    1.5138    4.3160   -0.1274 N   0  0  0  0  0  0  0  0  0  0  0  0
    0.1894    4.6735    0.2382 C   0  0  0  0  0  0  0  0  0  0  0  0
   -0.2321    4.8287    1.6146 C   0  0  0  0  0  0  0  0  0  0  0  0
    0.5494    5.0019    2.7756 C   0  0  0  0  0  0  0  0  0  0  0  0
    0.8971    3.7471    3.3347 C   0  0  0  0  0  0  0  0  0  0  0  0
   -0.3461    3.7254    4.0106 C   0  0  0  0  0  0  0  0  0  0  0  0
   -1.4816    3.4305    3.2121 C   0  0  0  0  0  0  0  0  0  0  0  0
   -1.4438    4.4838    2.2631 C   0  0  0  0  0  0  0  0  0  0  0  0
   -2.2850    2.2896    3.2813 C   0  0  0  0  0  0  0  0  0  0  0  0
   -2.8441    1.5493    2.1487 N   0  0  0  0  0  0  0  0  0  0  0  0
   -3.5810    0.4945    2.4092 N   0  0  0  0  0  0  0  0  0  0  0  0
   -4.9644    0.7710    2.7919 C   0  0  0  0  0  0  0  0  0  0  0  0
   -5.7714    1.2891    1.6073 C   0  0  0  0  0  0  0  0  0  0  0  0
   -7.2631    0.9933    1.7608 C   0  0  0  0  0  0  0  0  0  0  0  0
   -7.8160    0.3261    0.6127 N   0  0  0  0  0  0  0  0  0  0  0  0
   -7.4458    0.8668   -0.6670 C   0  0  0  0  0  0  0  0  0  0  0  0
   -7.3344    2.2485   -0.5366 C   0  0  0  0  0  0  0  0  0  0  0  0
   -7.1632    3.0155   -1.6688 C   0  0  0  0  0  0  0  0  0  0  0  0
   -7.6291    2.4951   -2.8651 C   0  0  0  0  0  0  0  0  0  0  0  0
   -7.6140    1.1114   -2.9922 C   0  0  0  0  0  0  0  0  0  0  0  0
   -7.7130    0.2675   -1.8922 C   0  0  0  0  0  0  0  0  0  0  0  0
   -8.4839   -0.9278   -2.2830 C   0  0  0  0  0  0  0  0  0  0  0  0
   -8.3845   -2.0679   -1.3158 C   0  0  0  0  0  0  0  0  0  0  0  0
   -9.0679   -1.7762   -0.0166 C   0  0  0  0  0  0  0  0  0  0  0  0
   -9.7994   -2.8210    0.4820 C   0  0  0  0  0  0  0  0  0  0  0  0
  -10.4889   -2.6319    1.6727 C   0  0  0  0  0  0  0  0  0  0  0  0
  -10.2983   -1.5068    2.4629 C   0  0  0  0  0  0  0  0  0  0  0  0
   -9.2584   -0.6514    2.1312 C   0  0  0  0  0  0  0  0  0  0  0  0
   -8.6514   -0.8136    0.8892 C   0  0  0  0  0  0  0  0  0  0  0  0
   -3.3140   -0.7799    2.6182 N   0  0  0  0  0  0  0  0  0  0  0  0
   -3.8360   -1.7108    1.6155 C   0  0  0  0  0  0  0  0  0  0  0  0
   -3.7896   -3.1178    1.7027 C   0  0  0  0  0  0  0  0  0  0  0  0
   -4.0714   -3.9625    0.5907 C   0  0  0  0  0  0  0  0  0  0  0  0
   -2.9909   -4.6404   -0.0240 C   0  0  0  0  0  0  0  0  0  0  0  0
   -2.9103   -5.4950    1.1004 C   0  0  0  0  0  0  0  0  0  0  0  0
   -2.1891   -4.9174    2.1756 C   0  0  0  0  0  0  0  0  0  0  0  0
   -3.1901   -4.0145    2.6320 C   0  0  0  0  0  0  0  0  0  0  0  0
   -0.7546   -4.9501    2.3991 C   0  0  0  0  0  0  0  0  0  0  0  0
    0.1887   -5.1041    1.3330 N   0  0  0  0  0  0  0  0  0  0  0  0
    1.4759   -5.0187    1.4562 N   0  0  0  0  0  0  0  0  0  0  0  0
    2.0755   -6.3179    1.1429 C   0  0  0  0  0  0  0  0  0  0  0  0
    2.0582   -6.4629   -0.3473 C   0  0  0  0  0  0  0  0  0  0  0  0
    3.0475   -7.5000   -0.8798 C   0  0  0  0  0  0  0  0  0  0  0  0
    2.4091   -8.5074   -1.6798 N   0  0  0  0  0  0  0  0  0  0  0  0
    2.7392   -9.8745   -1.3826 C   0  0  0  0  0  0  0  0  0  0  0  0
    4.0538   -9.8897   -0.9256 C   0  0  0  0  0  0  0  0  0  0  0  0
    4.7221  -11.0845   -0.8964 C   0  0  0  0  0  0  0  0  0  0  0  0
    4.1258  -12.2287   -1.3549 C   0  0  0  0  0  0  0  0  0  0  0  0
    2.8114  -12.1822   -1.8009 C   0  0  0  0  0  0  0  0  0  0  0  0
    2.1087  -10.9869   -1.8931 C   0  0  0  0  0  0  0  0  0  0  0  0
    1.0995  -11.1445   -2.9872 C   0  0  0  0  0  0  0  0  0  0  0  0
    0.0016  -10.1220   -2.9049 C   0  0  0  0  0  0  0  0  0  0  0  0
    0.4842   -8.7432   -3.2307 C   0  0  0  0  0  0  0  0  0  0  0  0
   -0.2616   -8.1266   -4.2253 C   0  0  0  0  0  0  0  0  0  0  0  0
    0.1595   -6.9114   -4.7102 C   0  0  0  0  0  0  0  0  0  0  0  0
    1.3075   -6.2736   -4.2571 C   0  0  0  0  0  0  0  0  0  0  0  0
    1.9016   -6.7715   -3.1236 C   0  0  0  0  0  0  0  0  0  0  0  0
    1.4301   -7.9617   -2.5774 C   0  0  0  0  0  0  0  0  0  0  0  0
    2.2510   -4.3187    2.2405 N   0  0  0  0  0  0  0  0  0  0  0  0
    3.4782   -3.7145    1.7087 C   0  0  0  0  0  0  0  0  0  0  0  0
    4.0731   -2.5484    2.3136 C   0  0  0  0  0  0  0  0  0  0  0  0
    5.3800   -2.3149    2.8426 C   0  0  0  0  0  0  0  0  0  0  0  0
    5.5128   -1.1354    3.6629 C   0  0  0  0  0  0  0  0  0  0  0  0
    4.7225   -1.7567    4.7003 C   0  0  0  0  0  0  0  0  0  0  0  0
    3.3447   -1.7461    4.3503 C   0  0  0  0  0  0  0  0  0  0  0  0
    3.3475   -1.4795    2.9366 C   0  0  0  0  0  0  0  0  0  0  0  0
    2.2706   -2.4251    5.0580 C   0  0  0  0  0  0  0  0  0  0  0  0
    0.9162   -2.2291    4.5308 N   0  0  0  0  0  0  0  0  0  0  0  0
    0.7532   -1.1795    3.7181 N   0  0  0  0  0  0  0  0  0  0  0  0
    0.4268   -0.2978    4.8481 C   0  0  0  0  0  0  0  0  0  0  0  0
   -0.7024   -0.8658    5.6885 C   0  0  0  0  0  0  0  0  0  0  0  0
   -1.2135    0.1563    6.7009 C   0  0  0  0  0  0  0  0  0  0  0  0
   -1.3471   -0.4059    8.0264 N   0  0  0  0  0  0  0  0  0  0  0  0
   -1.9103   -1.7264    7.9962 C   0  0  0  0  0  0  0  0  0  0  0  0
   -2.9558   -1.7643    7.0784 C   0  0  0  0  0  0  0  0  0  0  0  0
   -3.8163   -2.8284    7.0621 C   0  0  0  0  0  0  0  0  0  0  0  0
   -3.4911   -3.9072    7.8755 C   0  0  0  0  0  0  0  0  0  0  0  0
   -2.5994   -3.7658    8.9318 C   0  0  0  0  0  0  0  0  0  0  0  0
   -1.9352   -2.5612    9.1078 C   0  0  0  0  0  0  0  0  0  0  0  0
   -0.9862   -2.5703   10.2643 C   0  0  0  0  0  0  0  0  0  0  0  0
   -1.1003   -1.3374   11.1115 C   0  0  0  0  0  0  0  0  0  0  0  0
   -0.6160   -0.1074   10.4109 C   0  0  0  0  0  0  0  0  0  0  0  0
   -0.4009    0.8658   11.3793 C   0  0  0  0  0  0  0  0  0  0  0  0
   -0.5269    2.2170   11.1143 C   0  0  0  0  0  0  0  0  0  0  0  0
   -0.7150    2.6040    9.7988 C   0  0  0  0  0  0  0  0  0  0  0  0
   -0.8399    1.6776    8.7718 C   0  0  0  0  0  0  0  0  0  0  0  0
   -0.7610    0.3299    9.1139 C   0  0  0  0  0  0  0  0  0  0  0  0
    0.0140   -1.0157    2.6939 N   0  0  0  0  0  0  0  0  0  0  0  0
    0.1515   -1.2891    1.3296 C   0  0  0  0  0  0  0  0  0  0  0  0
   -0.4297   -0.3252    0.3367 C   0  0  0  0  0  0  0  0  0  0  0  0
    0.0495    0.9685    0.0347 C   0  0  0  0  0  0  0  0  0  0  0  0
    1.0762    1.0766   -0.9394 C   0  0  0  0  0  0  0  0  0  0  0  0
    0.3929    0.5435   -2.0638 C   0  0  0  0  0  0  0  0  0  0  0  0
   -0.0651   -0.7972   -1.9788 C   0  0  0  0  0  0  0  0  0  0  0  0
   -1.0034   -0.5132   -0.9504 C   0  0  0  0  0  0  0  0  0  0  0  0
    0.6235   -2.0580   -2.2661 C   0  0  0  0  0  0  0  0  0  0  0  0
   -0.2176   -3.0724   -2.9210 N   0  0  0  0  0  0  0  0  0  0  0  0
   -1.5856   -2.7315   -2.8298 N   0  0  0  0  0  0  0  0  0  0  0  0
   -2.1372   -2.5571   -4.1736 C   0  0  0  0  0  0  0  0  0  0  0  0
   -2.9165   -1.2942   -4.3461 C   0  0  0  0  0  0  0  0  0  0  0  0
   -2.2633   -0.3582   -5.3646 C   0  0  0  0  0  0  0  0  0  0  0  0
   -3.1467    0.6090   -5.9173 N   0  0  0  0  0  0  0  0  0  0  0  0
   -2.6545    1.9646   -5.9171 C   0  0  0  0  0  0  0  0  0  0  0  0
   -1.2609    1.9706   -5.9587 C   0  0  0  0  0  0  0  0  0  0  0  0
   -0.5910    3.1251   -6.3437 C   0  0  0  0  0  0  0  0  0  0  0  0
   -1.3054    4.3105   -6.2258 C   0  0  0  0  0  0  0  0  0  0  0  0
   -2.6891    4.3044   -6.1006 C   0  0  0  0  0  0  0  0  0  0  0  0
   -3.4010    3.1125   -6.1590 C   0  0  0  0  0  0  0  0  0  0  0  0
   -4.7063    3.2939   -6.8702 C   0  0  0  0  0  0  0  0  0  0  0  0
   -5.7351    2.2858   -6.4433 C   0  0  0  0  0  0  0  0  0  0  0  0
   -5.4037    0.9015   -6.9037 C   0  0  0  0  0  0  0  0  0  0  0  0
   -6.4324    0.2693   -7.5615 C   0  0  0  0  0  0  0  0  0  0  0  0
   -6.2652   -1.0288   -8.0277 C   0  0  0  0  0  0  0  0  0  0  0  0
   -5.1179   -1.7640   -7.7582 C   0  0  0  0  0  0  0  0  0  0  0  0
   -4.0775   -1.0670   -7.1562 C   0  0  0  0  0  0  0  0  0  0  0  0
   -4.3812    0.0839   -6.4344 C   0  0  0  0  0  0  0  0  0  0  0  0
   -2.3820   -3.7011   -2.2475 N   0  0  0  0  0  0  0  0  0  0  0  0
   -1.9498   -4.1566   -0.9657 C   0  0  0  0  0  0  0  0  0  0  0  0
    2.4929    1.1827   -0.7211 C   0  0  0  0  0  0  0  0  0  0  0  0
    2.9119    2.5988   -0.8627 N   0  0  0  0  0  0  0  0  0  0  0  0
    5.6339    0.3367    3.2549 C   0  0  0  0  0  0  0  0  0  0  0  0
    4.8233    1.2822    3.9401 N   0  0  0  0  0  0  0  0  0  0  0  0
    4.1110    2.2109    3.2672 N   0  0  0  0  0  0  0  0  0  0  0  0
    4.7696    3.4884    3.3371 C   0  0  0  0  0  0  0  0  0  0  0  0
    5.6655    3.7469    2.1297 C   0  0  0  0  0  0  0  0  0  0  0  0
    6.5573    4.9572    2.4004 C   0  0  0  0  0  0  0  0  0  0  0  0
    5.8573    6.1894    2.4983 N   0  0  0  0  0  0  0  0  0  0  0  0
    4.9777    6.4720    1.3977 C   0  0  0  0  0  0  0  0  0  0  0  0
    5.6509    6.1487    0.2230 C   0  0  0  0  0  0  0  0  0  0  0  0
    5.3067    6.7006   -0.9939 C   0  0  0  0  0  0  0  0  0  0  0  0
    4.2385    7.5895   -0.9890 C   0  0  0  0  0  0  0  0  0  0  0  0
    3.5795    7.9422    0.1821 C   0  0  0  0  0  0  0  0  0  0  0  0
    4.0808    7.5341    1.4041 C   0  0  0  0  0  0  0  0  0  0  0  0
    3.4750    8.2162    2.5741 C   0  0  0  0  0  0  0  0  0  0  0  0
    4.4707    8.9730    3.4010 C   0  0  0  0  0  0  0  0  0  0  0  0
    5.4312    8.0766    4.1183 C   0  0  0  0  0  0  0  0  0  0  0  0
    6.0303    8.8264    5.1227 C   0  0  0  0  0  0  0  0  0  0  0  0
    7.3206    8.5748    5.5632 C   0  0  0  0  0  0  0  0  0  0  0  0
    8.1067    7.6455    4.8949 C   0  0  0  0  0  0  0  0  0  0  0  0
    7.4475    6.7123    4.1043 C   0  0  0  0  0  0  0  0  0  0  0  0
    6.1472    6.9710    3.6747 C   0  0  0  0  0  0  0  0  0  0  0  0
    2.8733    2.4088    3.9193 N   0  0  0  0  0  0  0  0  0  0  0  0
    1.8063    2.6508    2.9421 C   0  0  0  0  0  0  0  0  0  0  0  0
    2.8281   -0.6419   -7.7032 H   0  0  0  0  0  0  0  0  0  0  0  0
    2.1901    1.6858   -7.6975 H   0  0  0  0  0  0  0  0  0  0  0  0
    3.1840    3.2347   -6.0033 H   0  0  0  0  0  0  0  0  0  0  0  0
    4.6301   -1.3887   -6.2438 H   0  0  0  0  0  0  0  0  0  0  0  0
    6.1084   -1.1654   -4.7246 H   0  0  0  0  0  0  0  0  0  0  0  0
    6.8252    0.1750   -5.6628 H   0  0  0  0  0  0  0  0  0  0  0  0
    7.6418   -0.1130   -3.3415 H   0  0  0  0  0  0  0  0  0  0  0  0
    6.0281    0.3077   -2.7331 H   0  0  0  0  0  0  0  0  0  0  0  0
    8.7666    1.5556   -2.4143 H   0  0  0  0  0  0  0  0  0  0  0  0
    9.4288    3.9146   -2.3487 H   0  0  0  0  0  0  0  0  0  0  0  0
    7.9331    5.6616   -3.3091 H   0  0  0  0  0  0  0  0  0  0  0  0
    5.7540    4.9521   -4.3611 H   0  0  0  0  0  0  0  0  0  0  0  0
    4.3080    4.3938   -3.1466 H   0  0  0  0  0  0  0  0  0  0  0  0
    3.7961    4.6780   -4.7940 H   0  0  0  0  0  0  0  0  0  0  0  0
    1.7120    3.5386   -4.2003 H   0  0  0  0  0  0  0  0  0  0  0  0
    2.6629    2.3472   -3.3054 H   0  0  0  0  0  0  0  0  0  0  0  0
    2.9590    4.8501   -1.9583 H   0  0  0  0  0  0  0  0  0  0  0  0
    1.2571    4.8803   -2.4486 H   0  0  0  0  0  0  0  0  0  0  0  0
    2.2086    5.1048   -0.0947 H   0  0  0  0  0  0  0  0  0  0  0  0
   -0.3624    3.9752   -0.4465 H   0  0  0  0  0  0  0  0  0  0  0  0
    0.0786    5.6141   -0.3805 H   0  0  0  0  0  0  0  0  0  0  0  0
    1.0967    5.9345    3.0358 H   0  0  0  0  0  0  0  0  0  0  0  0
   -0.3787    3.8848    5.1171 H   0  0  0  0  0  0  0  0  0  0  0  0
   -2.2990    5.2066    2.1951 H   0  0  0  0  0  0  0  0  0  0  0  0
   -3.2529    2.3544    3.8755 H   0  0  0  0  0  0  0  0  0  0  0  0
   -1.9569    1.3197    3.7503 H   0  0  0  0  0  0  0  0  0  0  0  0
   -3.2267    2.1724    1.4174 H   0  0  0  0  0  0  0  0  0  0  0  0
   -5.4514   -0.1328    3.2430 H   0  0  0  0  0  0  0  0  0  0  0  0
   -5.0542    1.5315    3.5803 H   0  0  0  0  0  0  0  0  0  0  0  0
   -5.5692    2.3854    1.5776 H   0  0  0  0  0  0  0  0  0  0  0  0
   -5.3711    0.8929    0.6500 H   0  0  0  0  0  0  0  0  0  0  0  0
   -7.8331    1.8029    2.1941 H   0  0  0  0  0  0  0  0  0  0  0  0
   -7.2269    0.2027    2.5581 H   0  0  0  0  0  0  0  0  0  0  0  0
   -7.6219    2.6686    0.4304 H   0  0  0  0  0  0  0  0  0  0  0  0
   -7.2387    4.0971   -1.5598 H   0  0  0  0  0  0  0  0  0  0  0  0
   -7.5660    3.1460   -3.7389 H   0  0  0  0  0  0  0  0  0  0  0  0
   -7.6664    0.6413   -3.9684 H   0  0  0  0  0  0  0  0  0  0  0  0
   -9.5741   -0.7115   -2.4173 H   0  0  0  0  0  0  0  0  0  0  0  0
   -8.1169   -1.2790   -3.2578 H   0  0  0  0  0  0  0  0  0  0  0  0
   -7.3076   -2.2160   -1.0553 H   0  0  0  0  0  0  0  0  0  0  0  0
   -8.7990   -2.9665   -1.7944 H   0  0  0  0  0  0  0  0  0  0  0  0
   -9.8586   -3.7443   -0.0645 H   0  0  0  0  0  0  0  0  0  0  0  0
  -11.3436   -3.2419    1.9088 H   0  0  0  0  0  0  0  0  0  0  0  0
  -11.0489   -1.1499    3.1628 H   0  0  0  0  0  0  0  0  0  0  0  0
   -9.1886    0.3600    2.5404 H   0  0  0  0  0  0  0  0  0  0  0  0
   -3.5830   -1.0878    3.5789 H   0  0  0  0  0  0  0  0  0  0  0  0
   -4.8569   -1.2142    1.6502 H   0  0  0  0  0  0  0  0  0  0  0  0
   -3.3822   -1.1336    0.7692 H   0  0  0  0  0  0  0  0  0  0  0  0
   -5.1016   -4.1140    0.1751 H   0  0  0  0  0  0  0  0  0  0  0  0
   -3.1496   -6.5822    1.0452 H   0  0  0  0  0  0  0  0  0  0  0  0
   -3.6414   -4.1596    3.6417 H   0  0  0  0  0  0  0  0  0  0  0  0
   -0.2385   -4.0714    2.8143 H   0  0  0  0  0  0  0  0  0  0  0  0
   -0.4101   -5.7379    3.1274 H   0  0  0  0  0  0  0  0  0  0  0  0
   -0.1092   -5.9587    0.8018 H   0  0  0  0  0  0  0  0  0  0  0  0
    1.3785   -7.0664    1.6003 H   0  0  0  0  0  0  0  0  0  0  0  0
    3.0433   -6.4790    1.6184 H   0  0  0  0  0  0  0  0  0  0  0  0
    2.2440   -5.4566   -0.7633 H   0  0  0  0  0  0  0  0  0  0  0  0
    1.0455   -6.8605   -0.6129 H   0  0  0  0  0  0  0  0  0  0  0  0
    3.3118   -8.0229    0.0788 H   0  0  0  0  0  0  0  0  0  0  0  0
    3.9765   -7.0822   -1.2403 H   0  0  0  0  0  0  0  0  0  0  0  0
    4.6367   -8.9703   -1.0296 H   0  0  0  0  0  0  0  0  0  0  0  0
    5.7683  -11.1145   -0.6217 H   0  0  0  0  0  0  0  0  0  0  0  0
    4.7414  -13.1245   -1.4530 H   0  0  0  0  0  0  0  0  0  0  0  0
    2.4822  -13.0567   -2.3571 H   0  0  0  0  0  0  0  0  0  0  0  0
    1.5957  -11.0454   -3.9697 H   0  0  0  0  0  0  0  0  0  0  0  0
    0.6385  -12.1387   -2.9049 H   0  0  0  0  0  0  0  0  0  0  0  0
   -0.7676  -10.3972   -3.6389 H   0  0  0  0  0  0  0  0  0  0  0  0
   -0.4764  -10.1664   -1.9033 H   0  0  0  0  0  0  0  0  0  0  0  0
   -1.1764   -8.6182   -4.5602 H   0  0  0  0  0  0  0  0  0  0  0  0
   -0.5063   -6.4119   -5.4140 H   0  0  0  0  0  0  0  0  0  0  0  0
    1.5742   -5.2777   -4.5570 H   0  0  0  0  0  0  0  0  0  0  0  0
    2.9058   -6.4935   -2.7955 H   0  0  0  0  0  0  0  0  0  0  0  0
    2.4481   -4.8578    3.1269 H   0  0  0  0  0  0  0  0  0  0  0  0
    3.2008   -3.6179    0.6174 H   0  0  0  0  0  0  0  0  0  0  0  0
    3.9923   -4.6948    1.6400 H   0  0  0  0  0  0  0  0  0  0  0  0
    6.3164   -2.7652    2.4500 H   0  0  0  0  0  0  0  0  0  0  0  0
    5.1866   -1.8354    5.7057 H   0  0  0  0  0  0  0  0  0  0  0  0
    2.9678   -0.5745    2.4316 H   0  0  0  0  0  0  0  0  0  0  0  0
    2.2507   -3.5432    5.1143 H   0  0  0  0  0  0  0  0  0  0  0  0
    1.9683   -2.0507    6.0727 H   0  0  0  0  0  0  0  0  0  0  0  0
    0.2294   -2.8842    4.7842 H   0  0  0  0  0  0  0  0  0  0  0  0
    0.1442    0.7008    4.5653 H   0  0  0  0  0  0  0  0  0  0  0  0
    1.3003   -0.2019    5.5426 H   0  0  0  0  0  0  0  0  0  0  0  0
   -0.3850   -1.7267    6.3093 H   0  0  0  0  0  0  0  0  0  0  0  0
   -1.4606   -1.1746    4.9614 H   0  0  0  0  0  0  0  0  0  0  0  0
   -2.0076    0.7897    6.3475 H   0  0  0  0  0  0  0  0  0  0  0  0
   -0.3084    0.8169    6.7815 H   0  0  0  0  0  0  0  0  0  0  0  0
   -3.1494   -0.8138    6.5756 H   0  0  0  0  0  0  0  0  0  0  0  0
   -4.4043   -2.9589    6.1518 H   0  0  0  0  0  0  0  0  0  0  0  0
   -3.9024   -4.8869    7.6257 H   0  0  0  0  0  0  0  0  0  0  0  0
   -2.3800   -4.6097    9.5856 H   0  0  0  0  0  0  0  0  0  0  0  0
    0.0310   -2.6124    9.8157 H   0  0  0  0  0  0  0  0  0  0  0  0
   -1.2230   -3.4348   10.9000 H   0  0  0  0  0  0  0  0  0  0  0  0
   -0.5115   -1.5026   12.0250 H   0  0  0  0  0  0  0  0  0  0  0  0
   -2.1622   -1.2182   11.3903 H   0  0  0  0  0  0  0  0  0  0  0  0
   -0.4058    0.5950   12.4366 H   0  0  0  0  0  0  0  0  0  0  0  0
   -0.5866    2.9708   11.9013 H   0  0  0  0  0  0  0  0  0  0  0  0
   -0.9844    3.6481    9.6294 H   0  0  0  0  0  0  0  0  0  0  0  0
   -1.4562    1.9452    7.9086 H   0  0  0  0  0  0  0  0  0  0  0  0
   -0.3856   -0.0645    2.7529 H   0  0  0  0  0  0  0  0  0  0  0  0
    1.1274   -1.7417    1.0153 H   0  0  0  0  0  0  0  0  0  0  0  0
   -0.4434   -2.2442    1.3750 H   0  0  0  0  0  0  0  0  0  0  0  0
   -0.3714    1.8526    0.5631 H   0  0  0  0  0  0  0  0  0  0  0  0
    0.2127    1.1403   -2.9864 H   0  0  0  0  0  0  0  0  0  0  0  0
   -2.0974   -0.6597   -1.0963 H   0  0  0  0  0  0  0  0  0  0  0  0
    1.1057   -2.6296   -1.4401 H   0  0  0  0  0  0  0  0  0  0  0  0
    1.5106   -2.0407   -2.9485 H   0  0  0  0  0  0  0  0  0  0  0  0
   -0.0064   -3.1449   -3.9271 H   0  0  0  0  0  0  0  0  0  0  0  0
   -1.2737   -2.5092   -4.8852 H   0  0  0  0  0  0  0  0  0  0  0  0
   -2.7204   -3.4490   -4.5005 H   0  0  0  0  0  0  0  0  0  0  0  0
   -3.9453   -1.5604   -4.6115 H   0  0  0  0  0  0  0  0  0  0  0  0
   -3.0136   -0.8213   -3.3358 H   0  0  0  0  0  0  0  0  0  0  0  0
   -1.5947    0.2012   -4.6513 H   0  0  0  0  0  0  0  0  0  0  0  0
   -1.5575   -0.8536   -6.0258 H   0  0  0  0  0  0  0  0  0  0  0  0
   -0.8297    1.0088   -6.2541 H   0  0  0  0  0  0  0  0  0  0  0  0
    0.2483    3.1075   -7.0396 H   0  0  0  0  0  0  0  0  0  0  0  0
   -0.7564    5.2304   -6.4347 H   0  0  0  0  0  0  0  0  0  0  0  0
   -3.2664    5.2157   -6.2265 H   0  0  0  0  0  0  0  0  0  0  0  0
   -5.0813    4.2886   -6.5919 H   0  0  0  0  0  0  0  0  0  0  0  0
   -4.5189    3.1960   -7.9690 H   0  0  0  0  0  0  0  0  0  0  0  0
   -6.7086    2.5976   -6.8407 H   0  0  0  0  0  0  0  0  0  0  0  0
   -5.6977    2.2430   -5.3304 H   0  0  0  0  0  0  0  0  0  0  0  0
   -7.3843    0.7707   -7.6685 H   0  0  0  0  0  0  0  0  0  0  0  0
   -7.0127   -1.4768   -8.6763 H   0  0  0  0  0  0  0  0  0  0  0  0
   -4.9825   -2.7631   -8.1320 H   0  0  0  0  0  0  0  0  0  0  0  0
   -3.1553   -1.5529   -6.9319 H   0  0  0  0  0  0  0  0  0  0  0  0
   -2.6380   -4.4424   -2.9208 H   0  0  0  0  0  0  0  0  0  0  0  0
   -1.2426   -4.9466   -1.3382 H   0  0  0  0  0  0  0  0  0  0  0  0
   -1.2505   -3.3989   -0.6151 H   0  0  0  0  0  0  0  0  0  0  0  0
    3.2358    0.6234   -1.3483 H   0  0  0  0  0  0  0  0  0  0  0  0
    2.9691    0.8994    0.2553 H   0  0  0  0  0  0  0  0  0  0  0  0
    3.6431    2.7174   -1.5637 H   0  0  0  0  0  0  0  0  0  0  0  0
    5.4083    0.5978    2.2221 H   0  0  0  0  0  0  0  0  0  0  0  0
    6.6795    0.7118    3.4154 H   0  0  0  0  0  0  0  0  0  0  0  0
    5.2309    1.6377    4.8419 H   0  0  0  0  0  0  0  0  0  0  0  0
    4.0629    4.3467    3.4034 H   0  0  0  0  0  0  0  0  0  0  0  0
    5.4026    3.5397    4.2401 H   0  0  0  0  0  0  0  0  0  0  0  0
    6.3356    2.8843    2.0005 H   0  0  0  0  0  0  0  0  0  0  0  0
    4.9983    3.8627    1.2855 H   0  0  0  0  0  0  0  0  0  0  0  0
    7.5091    4.9360    1.8818 H   0  0  0  0  0  0  0  0  0  0  0  0
    6.8330    4.6664    3.4542 H   0  0  0  0  0  0  0  0  0  0  0  0
    6.4618    5.4573    0.3015 H   0  0  0  0  0  0  0  0  0  0  0  0
    5.9730    6.6979   -1.8379 H   0  0  0  0  0  0  0  0  0  0  0  0
    3.9062    7.9642   -1.9587 H   0  0  0  0  0  0  0  0  0  0  0  0
    2.6496    8.4857    0.1627 H   0  0  0  0  0  0  0  0  0  0  0  0
    2.9711    7.4298    3.1852 H   0  0  0  0  0  0  0  0  0  0  0  0
    2.7055    8.9267    2.2422 H   0  0  0  0  0  0  0  0  0  0  0  0
    5.0407    9.6325    2.6986 H   0  0  0  0  0  0  0  0  0  0  0  0
    3.9151    9.5440    4.1590 H   0  0  0  0  0  0  0  0  0  0  0  0
    5.5364    9.7394    5.4598 H   0  0  0  0  0  0  0  0  0  0  0  0
    7.8635    9.2666    6.2096 H   0  0  0  0  0  0  0  0  0  0  0  0
    9.1850    7.8002    4.8335 H   0  0  0  0  0  0  0  0  0  0  0  0
    8.0611    6.1829    3.3684 H   0  0  0  0  0  0  0  0  0  0  0  0
    2.8948    3.2004    4.5841 H   0  0  0  0  0  0  0  0  0  0  0  0
    1.3889    1.6533    2.7471 H   0  0  0  0  0  0  0  0  0  0  0  0
    2.4012    2.7479    2.0328 H   0  0  0  0  0  0  0  0  0  0  0  0
  1  2  1  0
  2  3  2  0
  3  4  1  0
  4  5  2  0
  5  6  1  0
  5  7  1  0
  7  8  1  0
  8  9  1  0
  9 10  2  0
 10 11  1  0
 11 12  2  0
 12 13  1  0
 13 14  2  0
 14 15  1  0
 15 16  1  0
 16 17  1  0
 17 18  1  0
 18 19  1  0
 19 20  1  0
 20 21  1  0
 21 22  1  0
 22 23  1  0
 23 24  2  0
 24 25  1  0
 25 26  2  0
 26 27  1  0
 26 28  1  0
 28 29  1  0
 29 30  1  0
 30 31  1  0
 31 32  1  0
 32 33  1  0
 33 34  1  0
 34 35  1  0
 35 36  2  0
 36 37  1  0
 37 38  2  0
 38 39  1  0
 39 40  2  0
 40 41  1  0
 41 42  1  0
 42 43  1  0
 43 44  2  0
 44 45  1  0
 45 46  2  0
 46 47  1  0
 47 48  2  0
 30 49  1  0
 49 50  1  0
 50 51  1  0
 51 52  1  0
 52 53  2  0
 53 54  1  0
 54 55  2  0
 55 56  1  0
 55 57  1  0
 57 58  1  0
 58 59  1  0
 59 60  1  0
 60 61  1  0
 61 62  1  0
 62 63  1  0
 63 64  1  0
 64 65  2  0
 65 66  1  0
 66 67  2  0
 67 68  1  0
 68 69  2  0
 69 70  1  0
 70 71  1  0
 71 72  1  0
 72 73  2  0
 73 74  1  0
 74 75  2  0
 75 76  1  0
 76 77  2  0
 59 78  1  0
 78 79  1  0
 79 80  1  0
 80 81  2  0
 81 82  1  0
 82 83  2  0
 83 84  1  0
 84 85  2  0
 84 86  1  0
 86 87  1  0
 87 88  1  0
 88 89  1  0
 89 90  1  0
 90 91  1  0
 91 92  1  0
 92 93  1  0
 93 94  2  0
 94 95  1  0
 95 96  2  0
 96 97  1  0
 97 98  2  0
 98 99  1  0
 99100  1  0
100101  1  0
101102  2  0
102103  1  0
103104  2  0
104105  1  0
105106  2  0
 88107  1  0
107108  1  0
108109  1  0
109110  2  0
110111  1  0
111112  2  0
112113  1  0
113114  2  0
113115  1  0
115116  1  0
116117  1  0
117118  1  0
118119  1  0
119120  1  0
120121  1  0
121122  1  0
122123  2  0
123124  1  0
124125  2  0
125126  1  0
126127  2  0
127128  1  0
128129  1  0
129130  1  0
130131  2  0
131132  1  0
132133  2  0
133134  1  0
134135  2  0
117136  1  0
136137  1  0
111138  1  0
138139  1  0
 82140  1  0
140141  1  0
141142  1  0
142143  1  0
143144  1  0
144145  1  0
145146  1  0
146147  1  0
147148  2  0
148149  1  0
149150  2  0
150151  1  0
151152  2  0
152153  1  0
153154  1  0
154155  1  0
155156  2  0
156157  1  0
157158  2  0
158159  1  0
159160  2  0
142161  1  0
161162  1  0
  6  1  2  0
 14  9  1  0
139 19  1  0
160146  1  0
 15  4  1  0
 27 22  2  0
 48 34  1  0
 56 51  2  0
 77 63  1  0
 85 80  1  0
106 92  1  0
114109  1  0
135121  1  0
152147  1  0
160155  1  0
162 24  1  0
 40 35  1  0
 48 43  1  0
137 53  1  0
 69 64  1  0
 77 72  1  0
 98 93  1  0
106101  1  0
127122  1  0
135130  1  0
  1163  1  0
  2164  1  0
  3165  1  0
  6166  1  0
  7167  1  0
  7168  1  0
  8169  1  0
  8170  1  0
 10171  1  0
 11172  1  0
 12173  1  0
 13174  1  0
 16175  1  0
 16176  1  0
 17177  1  0
 17178  1  0
 18179  1  0
 18180  1  0
 20181  1  0
 21182  1  0
 21183  1  0
 23184  1  0
 25185  1  0
 27186  1  0
 28187  1  0
 28188  1  0
 29189  1  0
 31190  1  0
 31191  1  0
 32192  1  0
 32193  1  0
 33194  1  0
 33195  1  0
 36196  1  0
 37197  1  0
 38198  1  0
 39199  1  0
 41200  1  0
 41201  1  0
 42202  1  0
 42203  1  0
 44204  1  0
 45205  1  0
 46206  1  0
 47207  1  0
 49208  1  0
 50209  1  0
 50210  1  0
 52211  1  0
 54212  1  0
 56213  1  0
 57214  1  0
 57215  1  0
 58216  1  0
 60217  1  0
 60218  1  0
 61219  1  0
 61220  1  0
 62221  1  0
 62222  1  0
 65223  1  0
 66224  1  0
 67225  1  0
 68226  1  0
 70227  1  0
 70228  1  0
 71229  1  0
 71230  1  0
 73231  1  0
 74232  1  0
 75233  1  0
 76234  1  0
 78235  1  0
 79236  1  0
 79237  1  0
 81238  1  0
 83239  1  0
 85240  1  0
 86241  1  0
 86242  1  0
 87243  1  0
 89244  1  0
 89245  1  0
 90246  1  0
 90247  1  0
 91248  1  0
 91249  1  0
 94250  1  0
 95251  1  0
 96252  1  0
 97253  1  0
 99254  1  0
 99255  1  0
100256  1  0
100257  1  0
102258  1  0
103259  1  0
104260  1  0
105261  1  0
107262  1  0
108263  1  0
108264  1  0
110265  1  0
112266  1  0
114267  1  0
115268  1  0
115269  1  0
116270  1  0
118271  1  0
118272  1  0
119273  1  0
119274  1  0
120275  1  0
120276  1  0
123277  1  0
124278  1  0
125279  1  0
126280  1  0
128281  1  0
128282  1  0
129283  1  0
129284  1  0
131285  1  0
132286  1  0
133287  1  0
134288  1  0
136289  1  0
137290  1  0
137291  1  0
138292  1  0
138293  1  0
139294  1  0
140295  1  0
140296  1  0
141297  1  0
143298  1  0
143299  1  0
144300  1  0
144301  1  0
145302  1  0
145303  1  0
148304  1  0
149305  1  0
150306  1  0
151307  1  0
153308  1  0
153309  1  0
154310  1  0
154311  1  0
156312  1  0
157313  1  0
158314  1  0
159315  1  0
161316  1  0
162317  1  0
162318  1  0
M  END
