
     RDKit          3D

156168  0  0  0  0  0  0  0  0999 V2000
    1.1368    5.3516   -3.2087 C   0  0  0  0  0  0  0  0  0  0  0  0
   -0.2188    5.3345   -3.1798 N   0  0  0  0  0  0  0  0  0  0  0  0
   -0.7817    5.9187   -2.1007 C   0  0  0  0  0  0  0  0  0  0  0  0
   -0.0012    6.4471   -1.0794 C   0  0  0  0  0  0  0  0  0  0  0  0
    1.2222    5.8139   -0.8966 C   0  0  0  0  0  0  0  0  0  0  0  0
    1.8000    5.3387   -2.0268 N   0  0  0  0  0  0  0  0  0  0  0  0
    2.2400    4.8836   -0.5083 N   0  0  0  0  0  0  0  0  0  0  0  0
    3.1871    4.1112    0.1489 N   0  0  0  0  0  0  0  0  0  0  0  0
    3.1465    4.3247    1.5723 C   0  0  0  0  0  0  0  0  0  0  0  0
    4.3626    4.1804    2.3880 C   0  0  0  0  0  0  0  0  0  0  0  0
    5.7241    4.2614    1.9909 C   0  0  0  0  0  0  0  0  0  0  0  0
    6.3324    3.0281    1.6229 C   0  0  0  0  0  0  0  0  0  0  0  0
    6.3214    2.4444    2.9170 C   0  0  0  0  0  0  0  0  0  0  0  0
    5.0321    2.0788    3.4034 C   0  0  0  0  0  0  0  0  0  0  0  0
    4.5558    3.4092    3.5729 C   0  0  0  0  0  0  0  0  0  0  0  0
    4.2170    0.8517    3.1678 C   0  0  0  0  0  0  0  0  0  0  0  0
    3.7755    0.1875    4.3951 N   0  0  0  0  0  0  0  0  0  0  0  0
    2.4875   -0.3137    4.2218 N   0  0  0  0  0  0  0  0  0  0  0  0
    1.1099   -0.6745    4.3907 C   0  0  0  0  0  0  0  0  0  0  0  0
   -0.2702   -0.7306    4.2473 C   0  0  0  0  0  0  0  0  0  0  0  0
   -0.6335   -1.6559    3.2812 C   0  0  0  0  0  0  0  0  0  0  0  0
    0.2104   -2.6579    2.9325 N   0  0  0  0  0  0  0  0  0  0  0  0
    1.2082   -2.9012    3.7987 C   0  0  0  0  0  0  0  0  0  0  0  0
    1.8306   -1.8133    4.3116 N   0  0  0  0  0  0  0  0  0  0  0  0
   -1.1080   -2.3254    2.1208 N   0  0  0  0  0  0  0  0  0  0  0  0
   -2.0272   -2.8972    1.1384 C   0  0  0  0  0  0  0  0  0  0  0  0
   -2.1492   -2.0978   -0.1080 C   0  0  0  0  0  0  0  0  0  0  0  0
   -3.1177   -1.0994   -0.4143 C   0  0  0  0  0  0  0  0  0  0  0  0
   -4.3123   -1.5551   -1.0511 C   0  0  0  0  0  0  0  0  0  0  0  0
   -3.7012   -1.9509   -2.2780 C   0  0  0  0  0  0  0  0  0  0  0  0
   -2.8043   -3.0556   -2.2105 C   0  0  0  0  0  0  0  0  0  0  0  0
   -1.7967   -2.3924   -1.4566 C   0  0  0  0  0  0  0  0  0  0  0  0
   -3.1418   -4.4978   -2.3624 C   0  0  0  0  0  0  0  0  0  0  0  0
   -2.3384   -5.4715   -1.7146 N   0  0  0  0  0  0  0  0  0  0  0  0
   -1.3059   -6.4354   -1.4673 C   0  0  0  0  0  0  0  0  0  0  0  0
   -0.2168   -7.2918   -1.3327 C   0  0  0  0  0  0  0  0  0  0  0  0
    0.3859   -7.1434   -0.0885 C   0  0  0  0  0  0  0  0  0  0  0  0
   -0.4704   -7.0132    0.9556 N   0  0  0  0  0  0  0  0  0  0  0  0
   -1.8100   -7.0307    0.7377 C   0  0  0  0  0  0  0  0  0  0  0  0
   -2.2015   -6.4994   -0.4498 N   0  0  0  0  0  0  0  0  0  0  0  0
    1.1359   -6.7552    1.0502 N   0  0  0  0  0  0  0  0  0  0  0  0
    2.1439   -6.3539    1.9507 N   0  0  0  0  0  0  0  0  0  0  0  0
    3.0162   -5.3784    1.2957 C   0  0  0  0  0  0  0  0  0  0  0  0
    2.5316   -5.0074   -0.0982 C   0  0  0  0  0  0  0  0  0  0  0  0
    3.0883   -5.2821   -1.4022 C   0  0  0  0  0  0  0  0  0  0  0  0
    4.1018   -4.3683   -1.8139 C   0  0  0  0  0  0  0  0  0  0  0  0
    4.0098   -3.3060   -0.8478 C   0  0  0  0  0  0  0  0  0  0  0  0
    2.6926   -2.7324   -0.9444 C   0  0  0  0  0  0  0  0  0  0  0  0
    1.8533   -3.8203   -0.5517 C   0  0  0  0  0  0  0  0  0  0  0  0
    2.2931   -1.5572   -1.7460 C   0  0  0  0  0  0  0  0  0  0  0  0
    1.7892   -0.4067   -0.9819 N   0  0  0  0  0  0  0  0  0  0  0  0
    1.3647    0.6016   -0.0908 C   0  0  0  0  0  0  0  0  0  0  0  0
    0.6452    1.1295    0.9480 C   0  0  0  0  0  0  0  0  0  0  0  0
   -0.4963    1.7775    0.5555 C   0  0  0  0  0  0  0  0  0  0  0  0
   -0.7296    1.9596   -0.7695 N   0  0  0  0  0  0  0  0  0  0  0  0
    0.2603    1.8808   -1.6940 C   0  0  0  0  0  0  0  0  0  0  0  0
    1.2562    1.0257   -1.3528 N   0  0  0  0  0  0  0  0  0  0  0  0
   -1.5117    2.7189    0.3387 N   0  0  0  0  0  0  0  0  0  0  0  0
   -2.4637    3.6673    0.5742 N   0  0  0  0  0  0  0  0  0  0  0  0
   -3.8274    3.2613    0.5436 C   0  0  0  0  0  0  0  0  0  0  0  0
   -4.7528    3.8340   -0.4502 C   0  0  0  0  0  0  0  0  0  0  0  0
   -5.2879    5.1554   -0.4463 C   0  0  0  0  0  0  0  0  0  0  0  0
   -6.0601    5.4478   -1.6284 C   0  0  0  0  0  0  0  0  0  0  0  0
   -4.8806    5.5373   -2.4434 C   0  0  0  0  0  0  0  0  0  0  0  0
   -4.1452    4.3312   -2.6382 C   0  0  0  0  0  0  0  0  0  0  0  0
   -4.8606    3.3938   -1.8157 C   0  0  0  0  0  0  0  0  0  0  0  0
   -2.7994    4.1830   -3.2131 C   0  0  0  0  0  0  0  0  0  0  0  0
   -1.6841    4.9683   -2.6836 N   0  0  0  0  0  0  0  0  0  0  0  0
   -7.4950    5.1113   -2.0274 C   0  0  0  0  0  0  0  0  0  0  0  0
   -8.2692    4.3673   -1.1039 N   0  0  0  0  0  0  0  0  0  0  0  0
   -8.5321    3.0498   -1.3946 N   0  0  0  0  0  0  0  0  0  0  0  0
   -8.6079    1.6554   -1.7129 C   0  0  0  0  0  0  0  0  0  0  0  0
   -8.4778    0.3539   -2.1811 C   0  0  0  0  0  0  0  0  0  0  0  0
   -7.8201   -0.4855   -1.2980 C   0  0  0  0  0  0  0  0  0  0  0  0
   -7.7984   -0.2495    0.0359 N   0  0  0  0  0  0  0  0  0  0  0  0
   -8.6324    0.7267    0.4715 C   0  0  0  0  0  0  0  0  0  0  0  0
   -8.7704    1.7792   -0.3724 N   0  0  0  0  0  0  0  0  0  0  0  0
   -6.7136   -1.1651   -0.6904 N   0  0  0  0  0  0  0  0  0  0  0  0
   -5.5719   -2.0529   -0.4525 C   0  0  0  0  0  0  0  0  0  0  0  0
    4.6464   -4.2697   -3.1871 C   0  0  0  0  0  0  0  0  0  0  0  0
    5.6729   -3.2402   -3.4143 N   0  0  0  0  0  0  0  0  0  0  0  0
    6.7410   -2.3188   -3.1110 C   0  0  0  0  0  0  0  0  0  0  0  0
    7.7611   -1.6070   -2.4848 C   0  0  0  0  0  0  0  0  0  0  0  0
    7.3939   -0.4001   -1.8936 C   0  0  0  0  0  0  0  0  0  0  0  0
    6.4026    0.2632   -2.5398 N   0  0  0  0  0  0  0  0  0  0  0  0
    5.8237   -0.2579   -3.6510 C   0  0  0  0  0  0  0  0  0  0  0  0
    5.7571   -1.6135   -3.6743 N   0  0  0  0  0  0  0  0  0  0  0  0
    6.7249    0.4304   -0.9331 N   0  0  0  0  0  0  0  0  0  0  0  0
    6.0458    1.0033    0.1516 N   0  0  0  0  0  0  0  0  0  0  0  0
    6.4247    2.3932    0.2863 C   0  0  0  0  0  0  0  0  0  0  0  0
    1.6821    5.1930   -4.1396 H   0  0  0  0  0  0  0  0  0  0  0  0
   -0.3667    7.2193   -0.4025 H   0  0  0  0  0  0  0  0  0  0  0  0
    2.7209    4.9359   -1.4442 H   0  0  0  0  0  0  0  0  0  0  0  0
    4.1234    4.4707   -0.1778 H   0  0  0  0  0  0  0  0  0  0  0  0
    2.6501    5.3270    1.6879 H   0  0  0  0  0  0  0  0  0  0  0  0
    2.2768    3.6456    1.7623 H   0  0  0  0  0  0  0  0  0  0  0  0
    6.2537    5.2324    1.8906 H   0  0  0  0  0  0  0  0  0  0  0  0
    7.2465    2.1505    3.4548 H   0  0  0  0  0  0  0  0  0  0  0  0
    4.2759    3.8066    4.5731 H   0  0  0  0  0  0  0  0  0  0  0  0
    4.7331   -0.0194    2.6902 H   0  0  0  0  0  0  0  0  0  0  0  0
    3.3628    0.9005    2.4858 H   0  0  0  0  0  0  0  0  0  0  0  0
    3.8437    0.8899    5.1639 H   0  0  0  0  0  0  0  0  0  0  0  0
    2.7981   -1.2754    4.5227 H   0  0  0  0  0  0  0  0  0  0  0  0
   -0.9542   -0.0940    4.7712 H   0  0  0  0  0  0  0  0  0  0  0  0
    1.7104   -3.8386    3.9152 H   0  0  0  0  0  0  0  0  0  0  0  0
   -0.2825   -2.9028    1.9098 H   0  0  0  0  0  0  0  0  0  0  0  0
   -2.9676   -3.1860    1.6784 H   0  0  0  0  0  0  0  0  0  0  0  0
   -1.6335   -3.9372    1.0530 H   0  0  0  0  0  0  0  0  0  0  0  0
   -3.0122   -0.0455   -0.0838 H   0  0  0  0  0  0  0  0  0  0  0  0
   -3.9806   -1.4738   -3.2430 H   0  0  0  0  0  0  0  0  0  0  0  0
   -0.7643   -2.2677   -1.8393 H   0  0  0  0  0  0  0  0  0  0  0  0
   -3.1420   -4.8320   -3.4386 H   0  0  0  0  0  0  0  0  0  0  0  0
   -4.1470   -4.8523   -2.0181 H   0  0  0  0  0  0  0  0  0  0  0  0
   -2.8622   -5.6192   -0.8397 H   0  0  0  0  0  0  0  0  0  0  0  0
    0.2771   -7.7647   -2.1740 H   0  0  0  0  0  0  0  0  0  0  0  0
   -2.5276   -6.9699    1.5558 H   0  0  0  0  0  0  0  0  0  0  0  0
    0.3666   -6.8831    1.7587 H   0  0  0  0  0  0  0  0  0  0  0  0
    1.6455   -5.9238    2.7458 H   0  0  0  0  0  0  0  0  0  0  0  0
    4.0078   -5.8387    1.3754 H   0  0  0  0  0  0  0  0  0  0  0  0
    3.1664   -4.5694    2.0162 H   0  0  0  0  0  0  0  0  0  0  0  0
    2.8904   -6.2979   -1.8101 H   0  0  0  0  0  0  0  0  0  0  0  0
    4.7821   -3.0103   -0.1241 H   0  0  0  0  0  0  0  0  0  0  0  0
    0.7675   -3.7432   -0.3304 H   0  0  0  0  0  0  0  0  0  0  0  0
    3.1099   -1.0089   -2.2958 H   0  0  0  0  0  0  0  0  0  0  0  0
    1.7058   -1.7003   -2.6907 H   0  0  0  0  0  0  0  0  0  0  0  0
    1.6027    0.0899   -1.8890 H   0  0  0  0  0  0  0  0  0  0  0  0
    1.0924    1.2196    1.9410 H   0  0  0  0  0  0  0  0  0  0  0  0
    0.1269    2.1910   -2.7268 H   0  0  0  0  0  0  0  0  0  0  0  0
   -1.7585    2.4935   -0.6403 H   0  0  0  0  0  0  0  0  0  0  0  0
   -2.2572    4.6339    0.3224 H   0  0  0  0  0  0  0  0  0  0  0  0
   -4.1780    3.1791    1.6108 H   0  0  0  0  0  0  0  0  0  0  0  0
   -3.6882    2.1420    0.5217 H   0  0  0  0  0  0  0  0  0  0  0  0
   -5.4204    5.8334    0.4219 H   0  0  0  0  0  0  0  0  0  0  0  0
   -4.7366    6.4714   -3.0307 H   0  0  0  0  0  0  0  0  0  0  0  0
   -5.4751    2.5582   -2.1853 H   0  0  0  0  0  0  0  0  0  0  0  0
   -2.7454    4.1053   -4.3352 H   0  0  0  0  0  0  0  0  0  0  0  0
   -2.2745    3.2032   -3.0322 H   0  0  0  0  0  0  0  0  0  0  0  0
   -1.1989    4.9783   -3.5952 H   0  0  0  0  0  0  0  0  0  0  0  0
   -8.1170    6.0341   -2.1698 H   0  0  0  0  0  0  0  0  0  0  0  0
   -7.6402    4.5124   -2.9274 H   0  0  0  0  0  0  0  0  0  0  0  0
   -8.1133    4.5799   -0.1035 H   0  0  0  0  0  0  0  0  0  0  0  0
   -9.0492    2.8945   -0.4891 H   0  0  0  0  0  0  0  0  0  0  0  0
   -8.9135    0.0182   -3.1170 H   0  0  0  0  0  0  0  0  0  0  0  0
   -8.6706    0.8470    1.5557 H   0  0  0  0  0  0  0  0  0  0  0  0
   -6.8191   -0.8039    0.2676 H   0  0  0  0  0  0  0  0  0  0  0  0
   -5.9550   -3.0649   -0.7455 H   0  0  0  0  0  0  0  0  0  0  0  0
   -5.6176   -2.2301    0.6449 H   0  0  0  0  0  0  0  0  0  0  0  0
    3.9549   -3.9604   -4.0145 H   0  0  0  0  0  0  0  0  0  0  0  0
    5.3212   -5.1038   -3.5269 H   0  0  0  0  0  0  0  0  0  0  0  0
    5.0465   -2.4718   -3.7023 H   0  0  0  0  0  0  0  0  0  0  0  0
    8.7564   -2.0308   -2.3331 H   0  0  0  0  0  0  0  0  0  0  0  0
    5.0476    0.3221   -4.1101 H   0  0  0  0  0  0  0  0  0  0  0  0
    6.2976    1.0408   -1.6783 H   0  0  0  0  0  0  0  0  0  0  0  0
    6.4378    0.5328    1.0110 H   0  0  0  0  0  0  0  0  0  0  0  0
    5.8108    2.7727   -0.5422 H   0  0  0  0  0  0  0  0  0  0  0  0
    7.4593    2.4409   -0.1486 H   0  0  0  0  0  0  0  0  0  0  0  0
  1  2  2  0
  2  3  1  0
  3  4  2  0
  4  5  1  0
  5  6  2  0
  5  7  1  0
  7  8  1  0
  8  9  1  0
  9 10  1  0
 10 11  1  0
 11 12  2  0
 12 13  1  0
 13 14  2  0
 14 15  1  0
 14 16  1  0
 16 17  1  0
 17 18  1  0
 18 19  1  0
 19 20  1  0
 20 21  2  0
 21 22  1  0
 22 23  2  0
 23 24  1  0
 21 25  1  0
 25 26  1  0
 26 27  1  0
 27 28  1  0
 28 29  2  0
 29 30  1  0
 30 31  2  0
 31 32  1  0
 31 33  1  0
 33 34  1  0
 34 35  1  0
 35 36  1  0
 36 37  2  0
 37 38  1  0
 38 39  2  0
 39 40  1  0
 37 41  1  0
 41 42  1  0
 42 43  1  0
 43 44  1  0
 44 45  1  0
 45 46  2  0
 46 47  1  0
 47 48  2  0
 48 49  1  0
 48 50  1  0
 50 51  1  0
 51 52  1  0
 52 53  1  0
 53 54  2  0
 54 55  1  0
 55 56  2  0
 56 57  1  0
 54 58  1  0
 58 59  1  0
 59 60  1  0
 60 61  1  0
 61 62  1  0
 62 63  2  0
 63 64  1  0
 64 65  2  0
 65 66  1  0
 65 67  1  0
 67 68  1  0
 63 69  1  0
 69 70  1  0
 70 71  1  0
 71 72  1  0
 72 73  2  0
 73 74  1  0
 74 75  2  0
 75 76  1  0
 76 77  2  0
 74 78  1  0
 78 79  1  0
 46 80  1  0
 80 81  1  0
 81 82  1  0
 82 83  2  0
 83 84  1  0
 84 85  2  0
 85 86  1  0
 86 87  2  0
 84 88  1  0
 88 89  1  0
 89 90  1  0
  6  1  1  0
 15 10  2  0
 24 19  2  0
 32 27  2  0
 40 35  2  0
 49 44  2  0
 57 52  2  0
 66 61  2  0
 77 72  1  0
 87 82  1  0
 68  3  1  0
 90 12  1  0
 79 29  1  0
  1 91  1  0
  4 92  1  0
  7 93  1  0
  8 94  1  0
  9 95  1  0
  9 96  1  0
 11 97  1  0
 13 98  1  0
 15 99  1  0
 16100  1  0
 16101  1  0
 17102  1  0
 18103  1  0
 20104  1  0
 23105  1  0
 25106  1  0
 26107  1  0
 26108  1  0
 28109  1  0
 30110  1  0
 32111  1  0
 33112  1  0
 33113  1  0
 34114  1  0
 36115  1  0
 39116  1  0
 41117  1  0
 42118  1  0
 43119  1  0
 43120  1  0
 45121  1  0
 47122  1  0
 49123  1  0
 50124  1  0
 50125  1  0
 51126  1  0
 53127  1  0
 56128  1  0
 58129  1  0
 59130  1  0
 60131  1  0
 60132  1  0
 62133  1  0
 64134  1  0
 66135  1  0
 67136  1  0
 67137  1  0
 68138  1  0
 69139  1  0
 69140  1  0
 70141  1  0
 71142  1  0
 73143  1  0
 76144  1  0
 78145  1  0
 79146  1  0
 79147  1  0
 80148  1  0
 80149  1  0
 81150  1  0
 83151  1  0
 86152  1  0
 88153  1  0
 89154  1  0
 90155  1  0
 90156  1  0
M  END
