
     RDKit          3D

186198  0  0  0  0  0  0  0  0999 V2000
   -0.7036   -8.0382   -2.2071 C   0  0  0  0  0  0  0  0  0  0  0  0
   -0.8393   -7.9696   -0.8777 C   0  0  0  0  0  0  0  0  0  0  0  0
    0.3469   -8.0986   -0.0056 C   0  0  0  0  0  0  0  0  0  0  0  0
    0.0856   -7.5732    1.3545 C   0  0  0  0  0  0  0  0  0  0  0  0
   -1.1852   -7.3489    1.8702 C   0  0  0  0  0  0  0  0  0  0  0  0
   -1.3855   -7.5956    3.1664 N   0  0  0  0  0  0  0  0  0  0  0  0
   -0.3059   -7.7252    3.9780 C   0  0  0  0  0  0  0  0  0  0  0  0
    0.9054   -7.3317    3.5113 N   0  0  0  0  0  0  0  0  0  0  0  0
    1.0829   -7.1164    2.2068 C   0  0  0  0  0  0  0  0  0  0  0  0
    2.1479   -6.4196    2.8721 N   0  0  0  0  0  0  0  0  0  0  0  0
    3.3320   -5.7650    3.3176 C   0  0  0  0  0  0  0  0  0  0  0  0
    4.5952   -6.0213    2.5417 C   0  0  0  0  0  0  0  0  0  0  0  0
    5.8404   -5.3338    2.5918 C   0  0  0  0  0  0  0  0  0  0  0  0
    5.9713   -4.1063    1.8730 C   0  0  0  0  0  0  0  0  0  0  0  0
    5.7555   -4.5731    0.5502 C   0  0  0  0  0  0  0  0  0  0  0  0
    4.6162   -5.3751    0.2651 C   0  0  0  0  0  0  0  0  0  0  0  0
    4.8201   -6.4191    1.2005 C   0  0  0  0  0  0  0  0  0  0  0  0
    3.3657   -5.0798   -0.4305 C   0  0  0  0  0  0  0  0  0  0  0  0
    2.9957   -3.6761   -0.6194 N   0  0  0  0  0  0  0  0  0  0  0  0
    3.0174   -2.3125   -0.2605 C   0  0  0  0  0  0  0  0  0  0  0  0
    3.9828   -2.4847   -1.2003 N   0  0  0  0  0  0  0  0  0  0  0  0
    4.0699   -1.5518   -2.1814 C   0  0  0  0  0  0  0  0  0  0  0  0
    3.2173   -0.5624   -2.0825 N   0  0  0  0  0  0  0  0  0  0  0  0
    2.4019   -0.2794   -1.0365 C   0  0  0  0  0  0  0  0  0  0  0  0
    2.2591    0.6567   -2.1141 N   0  0  0  0  0  0  0  0  0  0  0  0
    1.9047    1.7918   -2.9640 C   0  0  0  0  0  0  0  0  0  0  0  0
    0.6071    1.8258   -3.6239 C   0  0  0  0  0  0  0  0  0  0  0  0
   -0.5517    1.0977   -3.1714 C   0  0  0  0  0  0  0  0  0  0  0  0
   -0.7325   -0.0336   -4.0401 C   0  0  0  0  0  0  0  0  0  0  0  0
   -0.9445    0.5872   -5.3024 C   0  0  0  0  0  0  0  0  0  0  0  0
   -1.0923    2.0200   -5.2894 C   0  0  0  0  0  0  0  0  0  0  0  0
    0.2988    2.1988   -4.9639 C   0  0  0  0  0  0  0  0  0  0  0  0
   -2.3389    2.8559   -5.0420 C   0  0  0  0  0  0  0  0  0  0  0  0
   -2.1469    4.0487   -4.2709 N   0  0  0  0  0  0  0  0  0  0  0  0
   -2.2203    5.2683   -3.6018 C   0  0  0  0  0  0  0  0  0  0  0  0
   -1.0260    5.2273   -4.2433 N   0  0  0  0  0  0  0  0  0  0  0  0
    0.0142    5.9699   -3.8007 C   0  0  0  0  0  0  0  0  0  0  0  0
   -0.1258    6.5916   -2.6193 N   0  0  0  0  0  0  0  0  0  0  0  0
   -1.3736    6.8532   -2.2126 C   0  0  0  0  0  0  0  0  0  0  0  0
   -0.5381    7.0287   -1.0643 N   0  0  0  0  0  0  0  0  0  0  0  0
    0.2865    7.1551    0.1412 C   0  0  0  0  0  0  0  0  0  0  0  0
    0.8409    5.9010    0.7118 C   0  0  0  0  0  0  0  0  0  0  0  0
    0.2364    5.0540    1.7112 C   0  0  0  0  0  0  0  0  0  0  0  0
   -0.5727    4.0589    1.0413 C   0  0  0  0  0  0  0  0  0  0  0  0
    0.4051    3.3583    0.2652 C   0  0  0  0  0  0  0  0  0  0  0  0
    1.7834    3.6653    0.5780 C   0  0  0  0  0  0  0  0  0  0  0  0
    1.7017    4.9909    0.0238 C   0  0  0  0  0  0  0  0  0  0  0  0
    2.7091    3.1576    1.6669 C   0  0  0  0  0  0  0  0  0  0  0  0
    3.9407    2.5419    1.1573 N   0  0  0  0  0  0  0  0  0  0  0  0
    5.1044    1.8094    0.7166 C   0  0  0  0  0  0  0  0  0  0  0  0
    5.2541    2.0286    2.0502 N   0  0  0  0  0  0  0  0  0  0  0  0
    6.0132    1.2102    2.8249 C   0  0  0  0  0  0  0  0  0  0  0  0
    6.2578   -0.0227    2.3423 N   0  0  0  0  0  0  0  0  0  0  0  0
    6.1639   -0.3550    1.0307 C   0  0  0  0  0  0  0  0  0  0  0  0
    6.0140   -1.5747    1.7840 N   0  0  0  0  0  0  0  0  0  0  0  0
    5.7142   -2.8140    2.4941 C   0  0  0  0  0  0  0  0  0  0  0  0
    5.9296    0.7798    0.2336 C   0  0  0  0  0  0  0  0  0  0  0  0
    6.6730    0.9726   -1.0618 C   0  0  0  0  0  0  0  0  0  0  0  0
    5.9784    2.0460   -1.8210 C   0  0  0  0  0  0  0  0  0  0  0  0
    6.2876    3.3157   -1.5281 C   0  0  0  0  0  0  0  0  0  0  0  0
   -1.9965    4.2224    0.7358 C   0  0  0  0  0  0  0  0  0  0  0  0
   -2.9377    3.2026    1.1254 N   0  0  0  0  0  0  0  0  0  0  0  0
   -4.1356    2.4408    0.9848 C   0  0  0  0  0  0  0  0  0  0  0  0
   -3.9922    2.6452    2.2946 N   0  0  0  0  0  0  0  0  0  0  0  0
   -4.5593    1.7057    3.0991 C   0  0  0  0  0  0  0  0  0  0  0  0
   -4.9345    0.4813    2.6467 N   0  0  0  0  0  0  0  0  0  0  0  0
   -5.0584    0.3585    1.3312 C   0  0  0  0  0  0  0  0  0  0  0  0
   -4.9103   -0.9601    1.7936 N   0  0  0  0  0  0  0  0  0  0  0  0
   -4.7364   -2.3867    1.8856 C   0  0  0  0  0  0  0  0  0  0  0  0
   -4.5883   -2.9948    3.2049 C   0  0  0  0  0  0  0  0  0  0  0  0
   -4.9993   -4.3152    3.5687 C   0  0  0  0  0  0  0  0  0  0  0  0
   -4.0517   -5.3713    3.4425 C   0  0  0  0  0  0  0  0  0  0  0  0
   -3.2333   -4.9225    4.5087 C   0  0  0  0  0  0  0  0  0  0  0  0
   -2.4550   -3.8092    4.1025 C   0  0  0  0  0  0  0  0  0  0  0  0
   -3.5065   -2.8516    4.1187 C   0  0  0  0  0  0  0  0  0  0  0  0
   -1.1605   -3.7635    3.3367 C   0  0  0  0  0  0  0  0  0  0  0  0
   -1.2317   -3.4251    1.9474 N   0  0  0  0  0  0  0  0  0  0  0  0
   -1.0526   -2.5488    0.8601 C   0  0  0  0  0  0  0  0  0  0  0  0
   -1.1848   -3.8083    0.4003 N   0  0  0  0  0  0  0  0  0  0  0  0
   -1.7456   -4.0086   -0.8189 C   0  0  0  0  0  0  0  0  0  0  0  0
   -1.6830   -2.9667   -1.6838 N   0  0  0  0  0  0  0  0  0  0  0  0
   -1.3513   -1.7440   -1.2029 C   0  0  0  0  0  0  0  0  0  0  0  0
   -0.7220   -1.9740   -2.4764 N   0  0  0  0  0  0  0  0  0  0  0  0
   -0.2675   -1.3981   -3.7516 C   0  0  0  0  0  0  0  0  0  0  0  0
   -1.3801   -1.4321    0.1234 C   0  0  0  0  0  0  0  0  0  0  0  0
   -1.2871   -0.0329    0.6552 C   0  0  0  0  0  0  0  0  0  0  0  0
   -1.3262    0.0069    2.0991 C   0  0  0  0  0  0  0  0  0  0  0  0
   -0.8430    0.8339    2.9799 C   0  0  0  0  0  0  0  0  0  0  0  0
   -3.7776   -6.2382    2.2532 C   0  0  0  0  0  0  0  0  0  0  0  0
   -2.4381   -6.7871    2.1513 N   0  0  0  0  0  0  0  0  0  0  0  0
   -5.0254    1.4728    0.5288 C   0  0  0  0  0  0  0  0  0  0  0  0
   -5.9717    1.7162   -0.6092 C   0  0  0  0  0  0  0  0  0  0  0  0
   -7.1623    2.4228   -0.0450 C   0  0  0  0  0  0  0  0  0  0  0  0
   -6.9401    3.5510    0.6175 C   0  0  0  0  0  0  0  0  0  0  0  0
   -2.4981    6.3936   -2.8849 C   0  0  0  0  0  0  0  0  0  0  0  0
   -3.8210    7.0807   -2.8433 C   0  0  0  0  0  0  0  0  0  0  0  0
   -4.8422    5.9834   -2.7712 C   0  0  0  0  0  0  0  0  0  0  0  0
   -5.1624    5.2363   -3.8241 C   0  0  0  0  0  0  0  0  0  0  0  0
    2.5158   -1.0952    0.0835 C   0  0  0  0  0  0  0  0  0  0  0  0
    2.3628   -0.6757    1.4711 C   0  0  0  0  0  0  0  0  0  0  0  0
    1.9983   -1.6921    2.4445 C   0  0  0  0  0  0  0  0  0  0  0  0
    2.0792   -1.3902    3.7496 C   0  0  0  0  0  0  0  0  0  0  0  0
    0.0038   -7.4094   -2.7379 H   0  0  0  0  0  0  0  0  0  0  0  0
   -1.0175   -8.9405   -2.7391 H   0  0  0  0  0  0  0  0  0  0  0  0
   -1.8115   -8.2980   -0.4969 H   0  0  0  0  0  0  0  0  0  0  0  0
    1.1779   -7.5526   -0.5189 H   0  0  0  0  0  0  0  0  0  0  0  0
    0.5769   -9.1924    0.0582 H   0  0  0  0  0  0  0  0  0  0  0  0
   -0.4628   -7.7361    5.0377 H   0  0  0  0  0  0  0  0  0  0  0  0
    1.6833   -6.4579    3.7896 H   0  0  0  0  0  0  0  0  0  0  0  0
    3.4183   -6.0806    4.3916 H   0  0  0  0  0  0  0  0  0  0  0  0
    2.9912   -4.7167    3.3766 H   0  0  0  0  0  0  0  0  0  0  0  0
    6.6637   -5.7415    3.2312 H   0  0  0  0  0  0  0  0  0  0  0  0
    6.5508   -4.4265   -0.2169 H   0  0  0  0  0  0  0  0  0  0  0  0
    4.9635   -7.4850    0.9216 H   0  0  0  0  0  0  0  0  0  0  0  0
    3.3279   -5.4232   -1.5029 H   0  0  0  0  0  0  0  0  0  0  0  0
    2.3894   -5.4232   -0.0621 H   0  0  0  0  0  0  0  0  0  0  0  0
    3.8377   -3.5831   -1.2507 H   0  0  0  0  0  0  0  0  0  0  0  0
    5.0350   -1.5237   -2.6906 H   0  0  0  0  0  0  0  0  0  0  0  0
    2.5589    0.0429   -2.8870 H   0  0  0  0  0  0  0  0  0  0  0  0
    2.8690    1.8180   -3.5215 H   0  0  0  0  0  0  0  0  0  0  0  0
    2.1131    2.6733   -2.2878 H   0  0  0  0  0  0  0  0  0  0  0  0
   -1.2498    1.4264   -2.3836 H   0  0  0  0  0  0  0  0  0  0  0  0
   -1.2275    0.0548   -6.2380 H   0  0  0  0  0  0  0  0  0  0  0  0
    0.9004    2.8297   -5.6512 H   0  0  0  0  0  0  0  0  0  0  0  0
   -2.7930    3.2213   -6.0020 H   0  0  0  0  0  0  0  0  0  0  0  0
   -3.1675    2.3827   -4.5104 H   0  0  0  0  0  0  0  0  0  0  0  0
   -1.4739    4.4277   -4.9929 H   0  0  0  0  0  0  0  0  0  0  0  0
    0.9121    6.1363   -4.3974 H   0  0  0  0  0  0  0  0  0  0  0  0
    0.3138    7.1511   -1.6752 H   0  0  0  0  0  0  0  0  0  0  0  0
    0.9579    8.0498    0.1007 H   0  0  0  0  0  0  0  0  0  0  0  0
   -0.4894    7.6807    0.7645 H   0  0  0  0  0  0  0  0  0  0  0  0
    0.3848    5.1355    2.7980 H   0  0  0  0  0  0  0  0  0  0  0  0
    0.2287    2.4599   -0.3610 H   0  0  0  0  0  0  0  0  0  0  0  0
    2.4800    5.2834   -0.7146 H   0  0  0  0  0  0  0  0  0  0  0  0
    2.9421    3.8784    2.4941 H   0  0  0  0  0  0  0  0  0  0  0  0
    2.3095    2.3631    2.3166 H   0  0  0  0  0  0  0  0  0  0  0  0
    4.3827    2.6938    2.1033 H   0  0  0  0  0  0  0  0  0  0  0  0
    5.9144    1.3159    3.9045 H   0  0  0  0  0  0  0  0  0  0  0  0
    5.6854   -1.0397    2.6307 H   0  0  0  0  0  0  0  0  0  0  0  0
    4.7052   -2.6115    2.8911 H   0  0  0  0  0  0  0  0  0  0  0  0
    6.3434   -2.5824    3.4082 H   0  0  0  0  0  0  0  0  0  0  0  0
    6.7424    0.0221   -1.6086 H   0  0  0  0  0  0  0  0  0  0  0  0
    7.7067    1.3260   -0.8900 H   0  0  0  0  0  0  0  0  0  0  0  0
    5.8207    1.8513   -2.8866 H   0  0  0  0  0  0  0  0  0  0  0  0
    5.6392    3.9438   -0.9472 H   0  0  0  0  0  0  0  0  0  0  0  0
    7.3390    3.6120   -1.5968 H   0  0  0  0  0  0  0  0  0  0  0  0
   -2.5422    5.0710    1.2514 H   0  0  0  0  0  0  0  0  0  0  0  0
   -2.2732    4.6531   -0.2742 H   0  0  0  0  0  0  0  0  0  0  0  0
   -3.0870    3.4180    2.1139 H   0  0  0  0  0  0  0  0  0  0  0  0
   -4.3313    1.7655    4.1648 H   0  0  0  0  0  0  0  0  0  0  0  0
   -5.0477   -0.6972    2.7728 H   0  0  0  0  0  0  0  0  0  0  0  0
   -4.0131   -2.7059    1.0876 H   0  0  0  0  0  0  0  0  0  0  0  0
   -5.6452   -2.6723    1.2784 H   0  0  0  0  0  0  0  0  0  0  0  0
   -6.0371   -4.5228    3.9146 H   0  0  0  0  0  0  0  0  0  0  0  0
   -3.0517   -5.5030    5.4319 H   0  0  0  0  0  0  0  0  0  0  0  0
   -3.4855   -2.0097    4.8470 H   0  0  0  0  0  0  0  0  0  0  0  0
   -0.5657   -4.6855    3.2938 H   0  0  0  0  0  0  0  0  0  0  0  0
   -0.3760   -3.1825    3.9045 H   0  0  0  0  0  0  0  0  0  0  0  0
   -0.9140   -4.2654    1.4796 H   0  0  0  0  0  0  0  0  0  0  0  0
   -2.0974   -4.9903   -1.1417 H   0  0  0  0  0  0  0  0  0  0  0  0
   -1.5040   -2.5497   -2.7965 H   0  0  0  0  0  0  0  0  0  0  0  0
    0.8430   -1.5605   -3.6599 H   0  0  0  0  0  0  0  0  0  0  0  0
   -0.5273   -2.2593   -4.3551 H   0  0  0  0  0  0  0  0  0  0  0  0
   -0.3243    0.3081    0.2846 H   0  0  0  0  0  0  0  0  0  0  0  0
   -2.0558    0.4936    0.0940 H   0  0  0  0  0  0  0  0  0  0  0  0
   -1.9557   -0.7751    2.5411 H   0  0  0  0  0  0  0  0  0  0  0  0
    0.0564    1.3929    2.7438 H   0  0  0  0  0  0  0  0  0  0  0  0
   -1.4194    1.2103    3.8275 H   0  0  0  0  0  0  0  0  0  0  0  0
   -3.9238   -5.8177    1.2518 H   0  0  0  0  0  0  0  0  0  0  0  0
   -4.3904   -7.1782    2.2608 H   0  0  0  0  0  0  0  0  0  0  0  0
   -2.5350   -7.2991    3.0676 H   0  0  0  0  0  0  0  0  0  0  0  0
   -5.4932    2.4114   -1.3194 H   0  0  0  0  0  0  0  0  0  0  0  0
   -6.2275    0.7669   -1.0979 H   0  0  0  0  0  0  0  0  0  0  0  0
   -8.0077    1.8257    0.2846 H   0  0  0  0  0  0  0  0  0  0  0  0
   -7.4699    3.8187    1.5372 H   0  0  0  0  0  0  0  0  0  0  0  0
   -6.1384    4.2448    0.3454 H   0  0  0  0  0  0  0  0  0  0  0  0
   -3.9505    7.6731   -1.9318 H   0  0  0  0  0  0  0  0  0  0  0  0
   -4.0164    7.6200   -3.7816 H   0  0  0  0  0  0  0  0  0  0  0  0
   -4.9255    5.4818   -1.8017 H   0  0  0  0  0  0  0  0  0  0  0  0
   -5.5622    5.6731   -4.7394 H   0  0  0  0  0  0  0  0  0  0  0  0
   -5.1988    4.1428   -3.7900 H   0  0  0  0  0  0  0  0  0  0  0  0
    1.7226    0.2207    1.4442 H   0  0  0  0  0  0  0  0  0  0  0  0
    3.2974   -0.2705    1.9355 H   0  0  0  0  0  0  0  0  0  0  0  0
    1.9154   -2.7381    2.1499 H   0  0  0  0  0  0  0  0  0  0  0  0
    1.7579   -2.1278    4.4870 H   0  0  0  0  0  0  0  0  0  0  0  0
    2.8612   -0.7061    4.0696 H   0  0  0  0  0  0  0  0  0  0  0  0
  1  2  2  3
  2  3  1  0
  3  4  1  0
  4  5  2  0
  5  6  1  0
  6  7  2  0
  7  8  1  0
  8  9  2  0
  9 10  1  0
 10 11  1  0
 11 12  1  0
 12 13  2  0
 13 14  1  0
 14 15  2  0
 15 16  1  0
 16 17  2  0
 16 18  1  0
 18 19  1  0
 19 20  1  0
 20 21  2  0
 21 22  1  0
 22 23  2  0
 23 24  1  0
 24 25  1  0
 25 26  1  0
 26 27  1  0
 27 28  2  0
 28 29  1  0
 29 30  2  0
 30 31  1  0
 31 32  2  0
 31 33  1  0
 33 34  1  0
 34 35  1  0
 35 36  2  0
 36 37  1  0
 37 38  2  0
 38 39  1  0
 39 40  1  0
 40 41  1  0
 41 42  1  0
 42 43  1  0
 43 44  2  0
 44 45  1  0
 45 46  2  0
 46 47  1  0
 46 48  1  0
 48 49  1  0
 49 50  1  0
 50 51  1  0
 51 52  2  0
 52 53  1  0
 53 54  2  0
 54 55  1  0
 55 56  1  0
 54 57  1  0
 57 58  1  0
 58 59  1  0
 59 60  2  3
 44 61  1  0
 61 62  1  0
 62 63  1  0
 63 64  2  0
 64 65  1  0
 65 66  2  0
 66 67  1  0
 67 68  1  0
 68 69  1  0
 69 70  1  0
 70 71  2  0
 71 72  1  0
 72 73  2  0
 73 74  1  0
 74 75  2  0
 74 76  1  0
 76 77  1  0
 77 78  1  0
 78 79  1  0
 79 80  2  0
 80 81  1  0
 81 82  2  0
 82 83  1  0
 83 84  1  0
 82 85  1  0
 85 86  1  0
 86 87  1  0
 87 88  2  3
 72 89  1  0
 89 90  1  0
 67 91  2  0
 91 92  1  0
 92 93  1  0
 93 94  2  3
 39 95  2  0
 95 96  1  0
 96 97  1  0
 97 98  2  3
 24 99  2  0
 99100  1  0
100101  1  0
101102  2  3
  9  4  1  0
 17 12  1  0
 99 20  1  0
 90  5  1  0
 56 14  1  0
 91 63  1  0
 32 27  1  0
 95 35  1  0
 84 29  1  0
 47 42  2  0
 57 50  2  0
 75 70  1  0
 85 78  2  0
  1103  1  0
  1104  1  0
  2105  1  0
  3106  1  0
  3107  1  0
  7108  1  0
 10109  1  0
 11110  1  0
 11111  1  0
 13112  1  0
 15113  1  0
 17114  1  0
 18115  1  0
 18116  1  0
 19117  1  0
 22118  1  0
 25119  1  0
 26120  1  0
 26121  1  0
 28122  1  0
 30123  1  0
 32124  1  0
 33125  1  0
 33126  1  0
 34127  1  0
 37128  1  0
 40129  1  0
 41130  1  0
 41131  1  0
 43132  1  0
 45133  1  0
 47134  1  0
 48135  1  0
 48136  1  0
 49137  1  0
 52138  1  0
 55139  1  0
 56140  1  0
 56141  1  0
 58142  1  0
 58143  1  0
 59144  1  0
 60145  1  0
 60146  1  0
 61147  1  0
 61148  1  0
 62149  1  0
 65150  1  0
 68151  1  0
 69152  1  0
 69153  1  0
 71154  1  0
 73155  1  0
 75156  1  0
 76157  1  0
 76158  1  0
 77159  1  0
 80160  1  0
 83161  1  0
 84162  1  0
 84163  1  0
 86164  1  0
 86165  1  0
 87166  1  0
 88167  1  0
 88168  1  0
 89169  1  0
 89170  1  0
 90171  1  0
 92172  1  0
 92173  1  0
 93174  1  0
 94175  1  0
 94176  1  0
 96177  1  0
 96178  1  0
 97179  1  0
 98180  1  0
 98181  1  0
100182  1  0
100183  1  0
101184  1  0
102185  1  0
102186  1  0
M  END
