
     RDKit          3D

156168  0  0  0  0  0  0  0  0999 V2000
   -4.9922    4.0412    0.8461 O   0  0  0  0  0  0  0  0  0  0  0  0
   -5.8956    3.2666    0.5315 C   0  0  0  0  0  0  0  0  0  0  0  0
   -5.5821    1.9251    0.0118 C   0  0  0  0  0  0  0  0  0  0  0  0
   -5.1476    0.9286    0.8342 N   0  0  0  0  0  0  0  0  0  0  0  0
   -5.7442   -0.2134    0.4017 C   0  0  0  0  0  0  0  0  0  0  0  0
   -4.7373   -0.7615    1.2615 N   0  0  0  0  0  0  0  0  0  0  0  0
   -3.5623   -1.3346    1.9156 C   0  0  0  0  0  0  0  0  0  0  0  0
   -3.8392   -2.7643    2.4004 C   0  0  0  0  0  0  0  0  0  0  0  0
   -3.9081   -3.9589    1.6188 C   0  0  0  0  0  0  0  0  0  0  0  0
   -2.7292   -4.7783    1.6176 C   0  0  0  0  0  0  0  0  0  0  0  0
   -2.5986   -5.0891    3.0073 C   0  0  0  0  0  0  0  0  0  0  0  0
   -2.4881   -3.9859    3.9076 C   0  0  0  0  0  0  0  0  0  0  0  0
   -3.7543   -3.3537    3.7022 C   0  0  0  0  0  0  0  0  0  0  0  0
   -1.2403   -3.5047    4.6703 C   0  0  0  0  0  0  0  0  0  0  0  0
   -1.3787   -2.1492    5.1165 N   0  0  0  0  0  0  0  0  0  0  0  0
   -2.1370   -1.0261    5.5970 C   0  0  0  0  0  0  0  0  0  0  0  0
   -0.8869   -0.6850    6.0045 N   0  0  0  0  0  0  0  0  0  0  0  0
   -1.0101    0.6567    6.2210 C   0  0  0  0  0  0  0  0  0  0  0  0
   -0.2037    1.5173    7.0993 C   0  0  0  0  0  0  0  0  0  0  0  0
   -0.5834    1.5653    8.3050 O   0  0  0  0  0  0  0  0  0  0  0  0
   -2.2918    1.0752    5.8814 C   0  0  0  0  0  0  0  0  0  0  0  0
   -1.4982    2.2112    5.4782 N   0  0  0  0  0  0  0  0  0  0  0  0
   -1.2347    3.2631    4.5177 C   0  0  0  0  0  0  0  0  0  0  0  0
   -0.6744    2.7566    3.1950 C   0  0  0  0  0  0  0  0  0  0  0  0
   -1.3700    2.1158    2.1248 C   0  0  0  0  0  0  0  0  0  0  0  0
   -0.5675    1.2388    1.3255 C   0  0  0  0  0  0  0  0  0  0  0  0
    0.0351    0.4291    2.3305 C   0  0  0  0  0  0  0  0  0  0  0  0
    1.0746    1.1196    3.0200 C   0  0  0  0  0  0  0  0  0  0  0  0
    0.6962    2.4911    2.8840 C   0  0  0  0  0  0  0  0  0  0  0  0
    2.2297    0.5906    3.8659 C   0  0  0  0  0  0  0  0  0  0  0  0
    3.4950    1.2136    3.5506 N   0  0  0  0  0  0  0  0  0  0  0  0
    4.3434    2.2491    3.0130 C   0  0  0  0  0  0  0  0  0  0  0  0
    5.1378    1.1148    2.8792 C   0  0  0  0  0  0  0  0  0  0  0  0
    5.4025    0.2957    4.0730 C   0  0  0  0  0  0  0  0  0  0  0  0
    5.7797    0.8776    5.1272 O   0  0  0  0  0  0  0  0  0  0  0  0
    5.8803    1.2047    1.7391 N   0  0  0  0  0  0  0  0  0  0  0  0
    5.5409    2.4280    1.2510 C   0  0  0  0  0  0  0  0  0  0  0  0
    6.0831    1.8465    0.0701 N   0  0  0  0  0  0  0  0  0  0  0  0
    6.3876    1.2206   -1.2178 C   0  0  0  0  0  0  0  0  0  0  0  0
    5.3844    0.0925   -1.4859 C   0  0  0  0  0  0  0  0  0  0  0  0
    5.5455   -1.3276   -1.4201 C   0  0  0  0  0  0  0  0  0  0  0  0
    5.0545   -2.0354   -2.5542 C   0  0  0  0  0  0  0  0  0  0  0  0
    5.1865   -1.0677   -3.5966 C   0  0  0  0  0  0  0  0  0  0  0  0
    4.2137   -0.0270   -3.5276 C   0  0  0  0  0  0  0  0  0  0  0  0
    4.1155    0.2056   -2.1223 C   0  0  0  0  0  0  0  0  0  0  0  0
    3.4375    0.5757   -4.6931 C   0  0  0  0  0  0  0  0  0  0  0  0
    2.8316    1.8404   -4.3796 N   0  0  0  0  0  0  0  0  0  0  0  0
    2.1747    2.8820   -3.6337 C   0  0  0  0  0  0  0  0  0  0  0  0
    1.8538    3.2206   -4.9450 C   0  0  0  0  0  0  0  0  0  0  0  0
    2.9523    3.3669   -5.9216 C   0  0  0  0  0  0  0  0  0  0  0  0
    2.6811    2.9158   -7.0760 O   0  0  0  0  0  0  0  0  0  0  0  0
    0.8944    4.1774   -4.8526 N   0  0  0  0  0  0  0  0  0  0  0  0
    0.4978    4.2192   -3.5536 C   0  0  0  0  0  0  0  0  0  0  0  0
   -0.6246    4.8385   -4.1378 N   0  0  0  0  0  0  0  0  0  0  0  0
   -1.6644    5.7563   -4.5058 C   0  0  0  0  0  0  0  0  0  0  0  0
   -3.0717    5.1930   -4.3043 C   0  0  0  0  0  0  0  0  0  0  0  0
   -3.7233    4.2257   -5.1274 C   0  0  0  0  0  0  0  0  0  0  0  0
   -3.4876    2.8901   -4.6961 C   0  0  0  0  0  0  0  0  0  0  0  0
   -3.5189    3.0158   -3.2724 C   0  0  0  0  0  0  0  0  0  0  0  0
   -4.5088    3.9372   -2.8316 C   0  0  0  0  0  0  0  0  0  0  0  0
   -3.8730    5.1816   -3.1213 C   0  0  0  0  0  0  0  0  0  0  0  0
   -5.9835    3.6281   -2.5444 C   0  0  0  0  0  0  0  0  0  0  0  0
   -6.1135    2.6027   -1.5296 N   0  0  0  0  0  0  0  0  0  0  0  0
   -6.4173    1.3306   -0.9299 C   0  0  0  0  0  0  0  0  0  0  0  0
   -6.7114    0.0299   -0.5304 C   0  0  0  0  0  0  0  0  0  0  0  0
   -8.2500   -1.0068   -1.0097 Br  0  0  0  0  0  0  0  0  0  0  0  0
   -3.2472    1.6639   -5.5749 C   0  0  0  0  0  0  0  0  0  0  0  0
   -3.0821    0.4667   -4.7993 N   0  0  0  0  0  0  0  0  0  0  0  0
   -2.9239   -0.3452   -3.6281 C   0  0  0  0  0  0  0  0  0  0  0  0
   -1.6238   -0.0213   -3.8493 N   0  0  0  0  0  0  0  0  0  0  0  0
   -1.0573   -0.2214   -2.6312 C   0  0  0  0  0  0  0  0  0  0  0  0
    0.3159   -0.6326   -2.3139 C   0  0  0  0  0  0  0  0  0  0  0  0
    0.4337   -1.8955   -2.2849 O   0  0  0  0  0  0  0  0  0  0  0  0
   -2.0296   -0.4267   -1.6570 C   0  0  0  0  0  0  0  0  0  0  0  0
   -1.0578    0.3680   -0.9358 N   0  0  0  0  0  0  0  0  0  0  0  0
   -0.2175    1.2921   -0.1714 C   0  0  0  0  0  0  0  0  0  0  0  0
   -3.0865   -0.9649   -2.3959 C   0  0  0  0  0  0  0  0  0  0  0  0
   -3.9786   -2.6513   -2.1604 Br  0  0  0  0  0  0  0  0  0  0  0  0
    1.5073    3.7164   -2.7413 C   0  0  0  0  0  0  0  0  0  0  0  0
    2.1817    4.4096   -1.0903 Br  0  0  0  0  0  0  0  0  0  0  0  0
    4.2989   -3.3607   -2.6023 C   0  0  0  0  0  0  0  0  0  0  0  0
    3.4515   -3.6271   -1.4758 N   0  0  0  0  0  0  0  0  0  0  0  0
    2.7696   -3.7417   -0.2090 C   0  0  0  0  0  0  0  0  0  0  0  0
    2.2311   -4.8102   -0.9215 C   0  0  0  0  0  0  0  0  0  0  0  0
    3.1409   -5.7859   -1.5432 C   0  0  0  0  0  0  0  0  0  0  0  0
    2.7081   -6.5330   -2.4718 O   0  0  0  0  0  0  0  0  0  0  0  0
    1.0382   -5.1053   -0.3338 N   0  0  0  0  0  0  0  0  0  0  0  0
    0.9013   -4.2494    0.7156 C   0  0  0  0  0  0  0  0  0  0  0  0
   -0.4229   -4.7835    0.6551 N   0  0  0  0  0  0  0  0  0  0  0  0
   -1.7947   -5.1736    0.4707 C   0  0  0  0  0  0  0  0  0  0  0  0
    2.1221   -3.6562    1.0221 C   0  0  0  0  0  0  0  0  0  0  0  0
    2.9849   -3.5438    2.7353 Br  0  0  0  0  0  0  0  0  0  0  0  0
    4.9982    3.2216    2.2544 C   0  0  0  0  0  0  0  0  0  0  0  0
    4.9685    5.1001    2.4602 Br  0  0  0  0  0  0  0  0  0  0  0  0
   -3.0673   -0.0784    6.0074 C   0  0  0  0  0  0  0  0  0  0  0  0
   -4.9397   -0.2191    6.2305 Br  0  0  0  0  0  0  0  0  0  0  0  0
   -6.9093    3.4015    0.9127 H   0  0  0  0  0  0  0  0  0  0  0  0
   -4.1158    1.0288    1.0562 H   0  0  0  0  0  0  0  0  0  0  0  0
   -4.9663   -0.0215    1.9768 H   0  0  0  0  0  0  0  0  0  0  0  0
   -2.6560   -1.2682    1.2864 H   0  0  0  0  0  0  0  0  0  0  0  0
   -3.3382   -0.6466    2.7334 H   0  0  0  0  0  0  0  0  0  0  0  0
   -4.7781   -4.1936    0.9926 H   0  0  0  0  0  0  0  0  0  0  0  0
   -2.6036   -6.1266    3.3731 H   0  0  0  0  0  0  0  0  0  0  0  0
   -4.4470   -3.1145    4.5108 H   0  0  0  0  0  0  0  0  0  0  0  0
   -0.3366   -3.4811    4.0524 H   0  0  0  0  0  0  0  0  0  0  0  0
   -1.1121   -4.1158    5.6009 H   0  0  0  0  0  0  0  0  0  0  0  0
   -0.8710   -2.1842    6.0138 H   0  0  0  0  0  0  0  0  0  0  0  0
    0.0362   -0.9148    5.5362 H   0  0  0  0  0  0  0  0  0  0  0  0
    0.5348    2.1933    6.7181 H   0  0  0  0  0  0  0  0  0  0  0  0
   -0.7656    1.5768    5.0639 H   0  0  0  0  0  0  0  0  0  0  0  0
   -0.5655    3.9689    5.0296 H   0  0  0  0  0  0  0  0  0  0  0  0
   -2.1246    3.9292    4.3603 H   0  0  0  0  0  0  0  0  0  0  0  0
   -2.3549    2.4501    1.7845 H   0  0  0  0  0  0  0  0  0  0  0  0
   -0.1978   -0.6280    2.4523 H   0  0  0  0  0  0  0  0  0  0  0  0
    1.3674    3.2690    2.5061 H   0  0  0  0  0  0  0  0  0  0  0  0
    2.4405   -0.4699    3.6991 H   0  0  0  0  0  0  0  0  0  0  0  0
    1.9879    0.6330    4.9589 H   0  0  0  0  0  0  0  0  0  0  0  0
    3.7480    0.5699    2.7526 H   0  0  0  0  0  0  0  0  0  0  0  0
    5.2340   -0.7795    4.0814 H   0  0  0  0  0  0  0  0  0  0  0  0
    5.8799    0.2777    1.2233 H   0  0  0  0  0  0  0  0  0  0  0  0
    6.8662    1.4245    0.6340 H   0  0  0  0  0  0  0  0  0  0  0  0
    6.4392    1.9767   -2.0079 H   0  0  0  0  0  0  0  0  0  0  0  0
    7.4199    0.8775   -1.1261 H   0  0  0  0  0  0  0  0  0  0  0  0
    6.0652   -1.8142   -0.5921 H   0  0  0  0  0  0  0  0  0  0  0  0
    5.9765   -1.1282   -4.3499 H   0  0  0  0  0  0  0  0  0  0  0  0
    3.2129    0.5225   -1.6066 H   0  0  0  0  0  0  0  0  0  0  0  0
    4.0833    0.8455   -5.5517 H   0  0  0  0  0  0  0  0  0  0  0  0
    2.5847   -0.0879   -4.9907 H   0  0  0  0  0  0  0  0  0  0  0  0
    1.9657    1.7268   -4.9733 H   0  0  0  0  0  0  0  0  0  0  0  0
    3.4705    4.3275   -5.9235 H   0  0  0  0  0  0  0  0  0  0  0  0
    0.8044    5.0330   -5.4646 H   0  0  0  0  0  0  0  0  0  0  0  0
   -0.5852    4.2497   -4.9865 H   0  0  0  0  0  0  0  0  0  0  0  0
   -1.5316    6.7290   -3.9682 H   0  0  0  0  0  0  0  0  0  0  0  0
   -1.5270    6.1202   -5.5566 H   0  0  0  0  0  0  0  0  0  0  0  0
   -4.3485    4.5093   -5.9774 H   0  0  0  0  0  0  0  0  0  0  0  0
   -2.9107    2.4257   -2.5869 H   0  0  0  0  0  0  0  0  0  0  0  0
   -4.0365    6.0761   -2.5158 H   0  0  0  0  0  0  0  0  0  0  0  0
   -6.4940    4.4718   -2.0481 H   0  0  0  0  0  0  0  0  0  0  0  0
   -6.5648    3.4358   -3.4527 H   0  0  0  0  0  0  0  0  0  0  0  0
   -5.0932    2.4829   -1.2907 H   0  0  0  0  0  0  0  0  0  0  0  0
   -2.2779    1.7430   -6.1304 H   0  0  0  0  0  0  0  0  0  0  0  0
   -4.1029    1.4320   -6.2289 H   0  0  0  0  0  0  0  0  0  0  0  0
   -2.2436    0.0513   -5.2128 H   0  0  0  0  0  0  0  0  0  0  0  0
   -1.2320    0.8695   -4.2740 H   0  0  0  0  0  0  0  0  0  0  0  0
    1.0798   -0.0569   -2.7824 H   0  0  0  0  0  0  0  0  0  0  0  0
   -0.9667    1.0012   -1.7792 H   0  0  0  0  0  0  0  0  0  0  0  0
   -0.3250    2.3298   -0.5798 H   0  0  0  0  0  0  0  0  0  0  0  0
    0.8382    1.0953   -0.3813 H   0  0  0  0  0  0  0  0  0  0  0  0
    3.6656   -3.4857   -3.4770 H   0  0  0  0  0  0  0  0  0  0  0  0
    5.0263   -4.2129   -2.6582 H   0  0  0  0  0  0  0  0  0  0  0  0
    2.5387   -3.7945   -1.9769 H   0  0  0  0  0  0  0  0  0  0  0  0
    4.0384   -6.1249   -1.0422 H   0  0  0  0  0  0  0  0  0  0  0  0
    0.3061   -5.3636   -1.0561 H   0  0  0  0  0  0  0  0  0  0  0  0
   -0.0222   -5.7483    0.5024 H   0  0  0  0  0  0  0  0  0  0  0  0
   -1.8622   -6.2756    0.2701 H   0  0  0  0  0  0  0  0  0  0  0  0
   -2.0823   -4.7391   -0.4866 H   0  0  0  0  0  0  0  0  0  0  0  0
  1  2  2  0
  2  3  1  0
  3  4  1  0
  4  5  1  0
  5  6  1  0
  6  7  1  0
  7  8  1  0
  8  9  2  0
  9 10  1  0
 10 11  2  0
 11 12  1  0
 12 13  2  0
 12 14  1  0
 14 15  1  0
 15 16  1  0
 16 17  1  0
 17 18  1  0
 18 19  1  0
 19 20  2  0
 18 21  2  0
 21 22  1  0
 22 23  1  0
 23 24  1  0
 24 25  1  0
 25 26  2  0
 26 27  1  0
 27 28  2  0
 28 29  1  0
 28 30  1  0
 30 31  1  0
 31 32  1  0
 32 33  2  0
 33 34  1  0
 34 35  2  0
 33 36  1  0
 36 37  1  0
 37 38  1  0
 38 39  1  0
 39 40  1  0
 40 41  1  0
 41 42  2  0
 42 43  1  0
 43 44  2  0
 44 45  1  0
 44 46  1  0
 46 47  1  0
 47 48  1  0
 48 49  2  0
 49 50  1  0
 50 51  2  0
 49 52  1  0
 52 53  1  0
 53 54  1  0
 54 55  1  0
 55 56  1  0
 56 57  2  0
 57 58  1  0
 58 59  2  0
 59 60  1  0
 60 61  2  0
 60 62  1  0
 62 63  1  0
 63 64  1  0
 64 65  1  0
 65 66  1  0
 58 67  1  0
 67 68  1  0
 68 69  1  0
 69 70  1  0
 70 71  1  0
 71 72  1  0
 72 73  2  0
 71 74  2  0
 74 75  1  0
 75 76  1  0
 74 77  1  0
 77 78  1  0
 53 79  2  0
 79 80  1  0
 42 81  1  0
 81 82  1  0
 82 83  1  0
 83 84  2  0
 84 85  1  0
 85 86  2  0
 84 87  1  0
 87 88  1  0
 88 89  1  0
 89 90  1  0
 88 91  2  0
 91 92  1  0
 37 93  2  0
 93 94  1  0
 21 95  1  0
 95 96  1  0
 64  3  2  0
 77 69  2  0
 91 83  1  0
 65  5  2  0
 13  8  1  0
 95 16  2  0
 90 10  1  0
 29 24  2  0
 93 32  1  0
 76 26  1  0
 45 40  2  0
 79 48  1  0
 61 56  1  0
  2 97  1  0
  4 98  1  0
  6 99  1  0
  7100  1  0
  7101  1  0
  9102  1  0
 11103  1  0
 13104  1  0
 14105  1  0
 14106  1  0
 15107  1  0
 17108  1  0
 19109  1  0
 22110  1  0
 23111  1  0
 23112  1  0
 25113  1  0
 27114  1  0
 29115  1  0
 30116  1  0
 30117  1  0
 31118  1  0
 34119  1  0
 36120  1  0
 38121  1  0
 39122  1  0
 39123  1  0
 41124  1  0
 43125  1  0
 45126  1  0
 46127  1  0
 46128  1  0
 47129  1  0
 50130  1  0
 52131  1  0
 54132  1  0
 55133  1  0
 55134  1  0
 57135  1  0
 59136  1  0
 61137  1  0
 62138  1  0
 62139  1  0
 63140  1  0
 67141  1  0
 67142  1  0
 68143  1  0
 70144  1  0
 72145  1  0
 75146  1  0
 76147  1  0
 76148  1  0
 81149  1  0
 81150  1  0
 82151  1  0
 85152  1  0
 87153  1  0
 89154  1  0
 90155  1  0
 90156  1  0
M  END
