
     RDKit          3D

126138  0  0  0  0  0  0  0  0999 V2000
    7.6264   -0.8086   -2.3898 Cl  0  0  0  0  0  0  0  0  0  0  0  0
    7.4133   -1.0697   -0.6847 C   0  0  0  0  0  0  0  0  0  0  0  0
    6.2852   -1.6799   -0.2571 N   0  0  0  0  0  0  0  0  0  0  0  0
    5.9095   -1.7200    1.0565 C   0  0  0  0  0  0  0  0  0  0  0  0
    6.9428   -1.3535    1.9370 C   0  0  0  0  0  0  0  0  0  0  0  0
    7.9931   -0.5632    1.5231 C   0  0  0  0  0  0  0  0  0  0  0  0
    8.2093   -0.4053    0.1333 N   0  0  0  0  0  0  0  0  0  0  0  0
    8.2257    0.5841    2.2992 O   0  0  0  0  0  0  0  0  0  0  0  0
    7.1653    1.4479    2.4253 N   0  0  0  0  0  0  0  0  0  0  0  0
    7.2028    2.7529    2.3885 C   0  0  0  0  0  0  0  0  0  0  0  0
    5.9132    3.4608    2.3612 C   0  0  0  0  0  0  0  0  0  0  0  0
    5.3786    3.8352    1.0946 C   0  0  0  0  0  0  0  0  0  0  0  0
    4.1300    3.3007    0.6832 C   0  0  0  0  0  0  0  0  0  0  0  0
    3.0837    4.3079    0.0935 C   0  0  0  0  0  0  0  0  0  0  0  0
    2.5488    4.2417   -1.0962 N   0  0  0  0  0  0  0  0  0  0  0  0
    2.5738    3.0821   -1.9211 O   0  0  0  0  0  0  0  0  0  0  0  0
    2.1753    3.1466   -3.2257 C   0  0  0  0  0  0  0  0  0  0  0  0
    1.0668    2.3789   -3.6192 C   0  0  0  0  0  0  0  0  0  0  0  0
    1.3623    1.3231   -4.5338 C   0  0  0  0  0  0  0  0  0  0  0  0
    0.3959    0.3807   -5.0451 N   0  0  0  0  0  0  0  0  0  0  0  0
    0.8300   -0.7714   -5.3772 C   0  0  0  0  0  0  0  0  0  0  0  0
    0.1564   -1.5597   -6.4227 C   0  0  0  0  0  0  0  0  0  0  0  0
   -1.2167   -1.4493   -6.6485 C   0  0  0  0  0  0  0  0  0  0  0  0
   -1.9704   -2.6557   -6.6610 C   0  0  0  0  0  0  0  0  0  0  0  0
   -3.0204   -2.8989   -5.6969 C   0  0  0  0  0  0  0  0  0  0  0  0
   -3.0891   -2.2857   -4.5876 N   0  0  0  0  0  0  0  0  0  0  0  0
   -3.1949   -2.9268   -3.3274 O   0  0  0  0  0  0  0  0  0  0  0  0
   -4.0148   -2.2978   -2.3777 C   0  0  0  0  0  0  0  0  0  0  0  0
   -3.8440   -2.4267   -0.9492 C   0  0  0  0  0  0  0  0  0  0  0  0
   -4.6160   -1.6588   -0.1423 C   0  0  0  0  0  0  0  0  0  0  0  0
   -4.1169   -1.2509    1.1391 N   0  0  0  0  0  0  0  0  0  0  0  0
   -4.5837   -0.7698    2.1966 C   0  0  0  0  0  0  0  0  0  0  0  0
   -5.9879   -0.5907    2.7653 C   0  0  0  0  0  0  0  0  0  0  0  0
   -5.9756   -0.7490    4.1747 C   0  0  0  0  0  0  0  0  0  0  0  0
   -5.9830    0.3857    5.0443 C   0  0  0  0  0  0  0  0  0  0  0  0
   -4.8618    0.5812    5.9521 C   0  0  0  0  0  0  0  0  0  0  0  0
   -3.9147    1.4304    5.6393 N   0  0  0  0  0  0  0  0  0  0  0  0
   -2.5141    1.2492    5.9485 C   0  0  0  0  0  0  0  0  0  0  0  0
   -1.5749    2.2574    5.7583 C   0  0  0  0  0  0  0  0  0  0  0  0
   -0.3075    2.0577    5.2963 C   0  0  0  0  0  0  0  0  0  0  0  0
    0.0650    0.7730    5.0624 N   0  0  0  0  0  0  0  0  0  0  0  0
   -0.7143   -0.2483    5.5314 C   0  0  0  0  0  0  0  0  0  0  0  0
   -0.0869   -1.9629    5.4902 Cl  0  0  0  0  0  0  0  0  0  0  0  0
   -1.9852   -0.0473    5.9148 N   0  0  0  0  0  0  0  0  0  0  0  0
    0.4820    3.1153    4.8703 O   0  0  0  0  0  0  0  0  0  0  0  0
    1.5320    3.1203    3.9593 N   0  0  0  0  0  0  0  0  0  0  0  0
    2.4638    2.2335    3.8466 C   0  0  0  0  0  0  0  0  0  0  0  0
    3.6690    2.5467    2.9427 C   0  0  0  0  0  0  0  0  0  0  0  0
    4.9769    3.1145    3.4087 C   0  0  0  0  0  0  0  0  0  0  0  0
    3.6248    2.2959    1.4816 C   0  0  0  0  0  0  0  0  0  0  0  0
   -6.6401    1.5536    4.5992 C   0  0  0  0  0  0  0  0  0  0  0  0
   -6.9243    1.6655    3.2215 C   0  0  0  0  0  0  0  0  0  0  0  0
   -6.5662    2.9607    2.6275 C   0  0  0  0  0  0  0  0  0  0  0  0
   -5.3258    2.9617    2.0943 N   0  0  0  0  0  0  0  0  0  0  0  0
   -4.4493    4.0697    2.0828 C   0  0  0  0  0  0  0  0  0  0  0  0
   -3.3796    4.0173    1.1411 C   0  0  0  0  0  0  0  0  0  0  0  0
   -2.0409    3.9845    1.5816 C   0  0  0  0  0  0  0  0  0  0  0  0
   -1.8038    4.5623    2.7299 N   0  0  0  0  0  0  0  0  0  0  0  0
   -2.8119    4.8651    3.5522 C   0  0  0  0  0  0  0  0  0  0  0  0
   -2.3848    5.7578    4.9915 Cl  0  0  0  0  0  0  0  0  0  0  0  0
   -4.1006    4.5693    3.2651 N   0  0  0  0  0  0  0  0  0  0  0  0
   -0.9468    3.3430    1.0304 O   0  0  0  0  0  0  0  0  0  0  0  0
   -0.8671    2.5759   -0.1585 N   0  0  0  0  0  0  0  0  0  0  0  0
    0.2593    1.8305    0.0007 C   0  0  0  0  0  0  0  0  0  0  0  0
    0.7254    0.4103   -0.6083 C   0  0  0  0  0  0  0  0  0  0  0  0
   -0.0695   -0.7902   -0.5670 C   0  0  0  0  0  0  0  0  0  0  0  0
    0.2115   -1.7615    0.5137 C   0  0  0  0  0  0  0  0  0  0  0  0
   -0.5060   -3.0159    0.6084 C   0  0  0  0  0  0  0  0  0  0  0  0
   -0.3823   -3.7220   -0.4638 N   0  0  0  0  0  0  0  0  0  0  0  0
   -0.4487   -5.0838   -0.4929 O   0  0  0  0  0  0  0  0  0  0  0  0
    0.3189   -5.7603   -1.3899 C   0  0  0  0  0  0  0  0  0  0  0  0
   -0.2429   -6.0246   -2.6407 C   0  0  0  0  0  0  0  0  0  0  0  0
    0.5188   -5.8486   -3.7813 C   0  0  0  0  0  0  0  0  0  0  0  0
   -0.0645   -5.1210   -4.8863 N   0  0  0  0  0  0  0  0  0  0  0  0
    0.4910   -5.0743   -6.0889 C   0  0  0  0  0  0  0  0  0  0  0  0
    0.0273   -3.9884   -6.9937 C   0  0  0  0  0  0  0  0  0  0  0  0
   -1.3708   -3.8331   -7.1487 C   0  0  0  0  0  0  0  0  0  0  0  0
    0.7920   -2.7580   -6.8638 C   0  0  0  0  0  0  0  0  0  0  0  0
    1.8591   -5.8919   -3.6459 N   0  0  0  0  0  0  0  0  0  0  0  0
    2.4121   -5.9128   -2.3927 C   0  0  0  0  0  0  0  0  0  0  0  0
    4.1622   -5.6735   -2.2873 Cl  0  0  0  0  0  0  0  0  0  0  0  0
    1.6650   -5.7615   -1.2748 N   0  0  0  0  0  0  0  0  0  0  0  0
    1.3758   -1.6537    1.2723 C   0  0  0  0  0  0  0  0  0  0  0  0
    2.4295   -0.9786    0.6494 C   0  0  0  0  0  0  0  0  0  0  0  0
    3.6706   -1.7707    0.4868 C   0  0  0  0  0  0  0  0  0  0  0  0
    4.5659   -1.4385    1.3930 N   0  0  0  0  0  0  0  0  0  0  0  0
    2.0581    0.0616   -0.2816 C   0  0  0  0  0  0  0  0  0  0  0  0
   -6.8155    0.4999    2.3852 C   0  0  0  0  0  0  0  0  0  0  0  0
   -5.7540   -1.0492   -0.6092 N   0  0  0  0  0  0  0  0  0  0  0  0
   -5.9343   -0.9430   -1.9574 C   0  0  0  0  0  0  0  0  0  0  0  0
   -7.3243   -0.2107   -2.6679 Cl  0  0  0  0  0  0  0  0  0  0  0  0
   -5.0683   -1.5064   -2.7646 N   0  0  0  0  0  0  0  0  0  0  0  0
    2.5035    1.4100   -5.2252 N   0  0  0  0  0  0  0  0  0  0  0  0
    3.3260    2.4598   -5.1143 C   0  0  0  0  0  0  0  0  0  0  0  0
    4.9399    2.2037   -5.6622 Cl  0  0  0  0  0  0  0  0  0  0  0  0
    3.1603    3.3551   -4.1089 N   0  0  0  0  0  0  0  0  0  0  0  0
    7.0363   -1.9282    2.8734 H   0  0  0  0  0  0  0  0  0  0  0  0
    8.1472    3.2523    2.4719 H   0  0  0  0  0  0  0  0  0  0  0  0
    5.9728    4.6577    0.5040 H   0  0  0  0  0  0  0  0  0  0  0  0
    2.7579    5.0703    0.7389 H   0  0  0  0  0  0  0  0  0  0  0  0
    0.0084    2.6641   -3.3465 H   0  0  0  0  0  0  0  0  0  0  0  0
    1.0749   -1.3265   -4.4782 H   0  0  0  0  0  0  0  0  0  0  0  0
   -1.6788   -0.5344   -7.0640 H   0  0  0  0  0  0  0  0  0  0  0  0
   -3.7806   -2.3687   -6.3207 H   0  0  0  0  0  0  0  0  0  0  0  0
   -2.9737   -3.0431   -0.5823 H   0  0  0  0  0  0  0  0  0  0  0  0
   -3.7390   -0.4743    2.8555 H   0  0  0  0  0  0  0  0  0  0  0  0
   -5.8788   -1.7330    4.6814 H   0  0  0  0  0  0  0  0  0  0  0  0
   -4.7596    0.1106    6.9252 H   0  0  0  0  0  0  0  0  0  0  0  0
   -1.8826    3.3078    6.0725 H   0  0  0  0  0  0  0  0  0  0  0  0
    2.5561    1.2193    4.4082 H   0  0  0  0  0  0  0  0  0  0  0  0
    5.3170    3.0860    4.4491 H   0  0  0  0  0  0  0  0  0  0  0  0
    3.8753    1.2820    1.1720 H   0  0  0  0  0  0  0  0  0  0  0  0
   -7.3392    2.1227    5.3337 H   0  0  0  0  0  0  0  0  0  0  0  0
   -7.0720    3.9213    2.9632 H   0  0  0  0  0  0  0  0  0  0  0  0
   -3.7310    4.2956    0.0701 H   0  0  0  0  0  0  0  0  0  0  0  0
    0.3893    1.4995   -1.0012 H   0  0  0  0  0  0  0  0  0  0  0  0
   -1.0609   -0.7610   -1.0493 H   0  0  0  0  0  0  0  0  0  0  0  0
   -1.0139   -3.3163    1.5352 H   0  0  0  0  0  0  0  0  0  0  0  0
   -1.3618   -6.4149   -2.7261 H   0  0  0  0  0  0  0  0  0  0  0  0
    1.3049   -5.7409   -6.3550 H   0  0  0  0  0  0  0  0  0  0  0  0
   -1.8895   -4.4852   -7.8715 H   0  0  0  0  0  0  0  0  0  0  0  0
    1.8816   -2.7749   -6.9385 H   0  0  0  0  0  0  0  0  0  0  0  0
    1.0763   -1.3458    2.3338 H   0  0  0  0  0  0  0  0  0  0  0  0
    3.7197   -2.6707   -0.0894 H   0  0  0  0  0  0  0  0  0  0  0  0
    2.9200    0.5343   -0.8075 H   0  0  0  0  0  0  0  0  0  0  0  0
   -7.3583    0.3928    1.4285 H   0  0  0  0  0  0  0  0  0  0  0  0
  1  2  1  0
  2  3  2  0
  3  4  1  0
  4  5  2  0
  5  6  1  0
  6  7  2  0
  6  8  1  0
  8  9  1  0
  9 10  2  0
 10 11  1  0
 11 12  1  0
 12 13  2  0
 13 14  1  0
 14 15  2  0
 15 16  1  0
 16 17  1  0
 17 18  1  0
 18 19  2  0
 19 20  1  0
 20 21  2  0
 21 22  1  0
 22 23  1  0
 23 24  2  0
 24 25  1  0
 25 26  2  0
 26 27  1  0
 27 28  1  0
 28 29  1  0
 29 30  2  0
 30 31  1  0
 31 32  2  0
 32 33  1  0
 33 34  1  0
 34 35  2  0
 35 36  1  0
 36 37  2  0
 37 38  1  0
 38 39  2  0
 39 40  1  0
 40 41  2  0
 41 42  1  0
 42 43  1  0
 42 44  2  0
 40 45  1  0
 45 46  1  0
 46 47  2  0
 47 48  1  0
 48 49  1  0
 48 50  2  0
 35 51  1  0
 51 52  2  0
 52 53  1  0
 53 54  2  0
 54 55  1  0
 55 56  1  0
 56 57  2  0
 57 58  1  0
 58 59  2  0
 59 60  1  0
 59 61  1  0
 57 62  1  0
 62 63  1  0
 63 64  2  0
 64 65  1  0
 65 66  1  0
 66 67  2  0
 67 68  1  0
 68 69  2  0
 69 70  1  0
 70 71  1  0
 71 72  2  0
 72 73  1  0
 73 74  1  0
 74 75  2  0
 75 76  1  0
 76 77  2  0
 76 78  1  0
 73 79  2  0
 79 80  1  0
 80 81  1  0
 80 82  2  0
 67 83  1  0
 83 84  2  0
 84 85  1  0
 85 86  2  0
 84 87  1  0
 52 88  1  0
 30 89  1  0
 89 90  2  0
 90 91  1  0
 90 92  1  0
 19 93  1  0
 93 94  2  0
 94 95  1  0
 94 96  1  0
  7  2  1  0
 49 11  2  0
 61 55  2  0
 87 65  2  0
 86  4  1  0
 50 13  1  0
 82 71  1  0
 96 17  2  0
 78 22  2  0
 77 24  1  0
 92 28  2  0
 88 33  2  0
 44 38  1  0
  5 97  1  0
 10 98  1  0
 12 99  1  0
 14100  1  0
 18101  1  0
 21102  1  0
 23103  1  0
 25104  1  0
 29105  1  0
 32106  1  0
 34107  1  0
 36108  1  0
 39109  1  0
 47110  1  0
 49111  1  0
 50112  1  0
 51113  1  0
 53114  1  0
 56115  1  0
 64116  1  0
 66117  1  0
 68118  1  0
 72119  1  0
 75120  1  0
 77121  1  0
 78122  1  0
 83123  1  0
 85124  1  0
 87125  1  0
 88126  1  0
M  END
