
     RDKit          3D

  0  0  0  0  0  0  0  0  0  0999 V3000
M  V30 BEGIN CTAB
M  V30 COUNTS 78 84 0 0 0
M  V30 BEGIN ATOM
M  V30 1 O -0.7835 17.1543 6.2149 0
M  V30 2 O -7.3827 20.3294 6.4574 0
M  V30 3 O -7.7093 22.5118 11.5669 0
M  V30 4 O -6.2611 16.6072 11.0228 0
M  V30 5 O 0.6771 19.6286 13.3463 0
M  V30 6 O -1.4144 24.6808 9.0127 0
M  V30 7 N -0.3049 17.5561 8.4003 0
M  V30 8 N -5.1465 20.2066 6.1134 0
M  V30 9 N -5.5136 22.8135 12.0681 0
M  V30 10 N -4.0782 17.005 11.4166 0
M  V30 11 N -1.0673 21.0738 13.1229 0
M  V30 12 N -1.3538 22.7269 7.8794 0
M  V30 13 C -2.3604 22.8142 10.1082 0
M  V30 14 C -2.8535 17.6896 11.0927 0
M  V30 15 C -1.7131 23.4881 8.933 0
M  V30 16 C -1.0011 19.0905 11.738 0
M  V30 17 C -3.6778 23.0541 10.4811 0
M  V30 18 H -4.2569 23.5365 9.9039 0
M  V30 19 C -4.1415 22.5847 11.6985 0
M  V30 20 C -0.3236 18.7451 10.5715 0
M  V30 21 H 0.5556 19.0682 10.4129 0
M  V30 22 C -3.2774 21.4264 7.1088 0
M  V30 23 H -3.8 22.2183 7.0937 0
M  V30 24 C -0.9235 17.8481 7.2251 0
M  V30 25 C -0.9465 17.9251 9.645 0
M  V30 26 C -1.7609 19.0972 7.1994 0
M  V30 27 C -5.479 18.7076 10.3147 0
M  V30 28 C -5.2812 17.3581 10.9315 0
M  V30 29 C -3.296 21.9382 12.5822 0
M  V30 30 H -3.6091 21.6683 13.4377 0
M  V30 31 C -6.2419 20.1935 6.9004 0
M  V30 32 C -0.37 19.9657 12.7799 0
M  V30 33 C -3.0459 19.0638 6.6689 0
M  V30 34 H -3.3985 18.2564 6.3164 0
M  V30 35 C -2.2698 18.5583 11.9996 0
M  V30 36 H -2.729 18.7919 12.797 0
M  V30 37 C -6.0311 20.0311 8.3742 0
M  V30 38 C -1.9823 21.6881 12.2031 0
M  V30 39 C -1.5208 22.1098 10.9639 0
M  V30 40 H -0.6283 21.9178 10.6991 0
M  V30 41 C -1.2142 20.2948 7.6491 0
M  V30 42 H -0.3312 20.3161 7.9995 0
M  V30 43 C -5.7098 19.8126 11.1324 0
M  V30 44 H -5.5616 19.7491 12.0684 0
M  V30 45 C -6.3392 21.1056 9.2043 0
M  V30 46 H -6.6779 21.9106 8.8289 0
M  V30 47 C -6.154 21.0067 10.5768 0
M  V30 48 C -2.1979 17.3724 9.9073 0
M  V30 49 H -2.6005 16.7831 9.281 0
M  V30 50 C -0.6038 21.8999 14.2413 0
M  V30 51 H -0.3247 21.3217 14.9811 0
M  V30 52 H -1.3321 22.4849 14.5403 0
M  V30 53 H 0.1561 22.4461 13.95 0
M  V30 54 C -3.8071 20.2248 6.6602 0
M  V30 55 C -3.9245 15.7094 12.0971 0
M  V30 56 H -4.7793 15.4479 12.4978 0
M  V30 57 H -3.2454 15.7871 12.7986 0
M  V30 58 H -3.6472 15.0311 11.4472 0
M  V30 59 C -6.5229 22.1766 11.4358 0
M  V30 60 C -1.9676 21.4536 7.5818 0
M  V30 61 C -5.2729 20.4448 4.6711 0
M  V30 62 H -6.2023 20.2991 4.3958 0
M  V30 63 H -4.6879 19.8266 4.186 0
M  V30 64 H -5.0132 21.3678 4.4689 0
M  V30 65 C -0.4459 23.2506 6.8464 0
M  V30 66 H -0.9622 23.4881 6.048 0
M  V30 67 H 0.216 22.5648 6.6156 0
M  V30 68 H 0.0119 24.0478 7.188 0
M  V30 69 C -5.6215 18.8266 8.9374 0
M  V30 70 H -5.4375 18.0819 8.3768 0
M  V30 71 C 0.6164 16.4116 8.4588 0
M  V30 72 H 0.1015 15.5812 8.5232 0
M  V30 73 H 1.1966 16.4996 9.2436 0
M  V30 74 H 1.1653 16.3929 7.6483 0
M  V30 75 C -5.7912 23.8743 13.0525 0
M  V30 76 H -5.7414 24.7481 12.6132 0
M  V30 77 H -5.1278 23.8322 13.7728 0
M  V30 78 H -6.6884 23.7474 13.4264 0
M  V30 END ATOM
M  V30 BEGIN BOND
M  V30 1 2 1 24
M  V30 2 2 2 31
M  V30 3 1 7 71
M  V30 4 1 7 25
M  V30 5 1 8 54
M  V30 6 1 8 31
M  V30 7 1 9 75
M  V30 8 1 10 55
M  V30 9 1 11 50
M  V30 10 1 12 15
M  V30 11 2 13 17
M  V30 12 1 13 39
M  V30 13 1 14 10
M  V30 14 1 14 35
M  V30 15 2 15 6
M  V30 16 1 15 13
M  V30 17 2 16 35
M  V30 18 1 16 32
M  V30 19 1 17 19
M  V30 20 1 18 17
M  V30 21 1 19 9
M  V30 22 2 19 29
M  V30 23 1 20 16
M  V30 24 1 21 20
M  V30 25 2 22 60
M  V30 26 1 23 22
M  V30 27 1 24 7
M  V30 28 1 25 48
M  V30 29 2 25 20
M  V30 30 1 26 24
M  V30 31 2 26 41
M  V30 32 1 27 28
M  V30 33 2 27 43
M  V30 34 2 28 4
M  V30 35 1 28 10
M  V30 36 1 29 30
M  V30 37 1 31 37
M  V30 38 1 32 11
M  V30 39 2 32 5
M  V30 40 1 33 26
M  V30 41 1 34 33
M  V30 42 1 35 36
M  V30 43 2 37 69
M  V30 44 1 37 45
M  V30 45 1 38 29
M  V30 46 1 38 11
M  V30 47 2 39 38
M  V30 48 1 40 39
M  V30 49 1 41 42
M  V30 50 1 43 44
M  V30 51 2 45 47
M  V30 52 1 46 45
M  V30 53 1 47 43
M  V30 54 1 47 59
M  V30 55 2 48 14
M  V30 56 1 49 48
M  V30 57 1 50 52
M  V30 58 1 50 51
M  V30 59 1 53 50
M  V30 60 2 54 33
M  V30 61 1 54 22
M  V30 62 1 55 56
M  V30 63 1 55 57
M  V30 64 1 58 55
M  V30 65 2 59 3
M  V30 66 1 59 9
M  V30 67 1 60 41
M  V30 68 1 60 12
M  V30 69 1 61 8
M  V30 70 1 62 61
M  V30 71 1 63 61
M  V30 72 1 64 61
M  V30 73 1 65 68
M  V30 74 1 65 12
M  V30 75 1 66 65
M  V30 76 1 67 65
M  V30 77 1 69 27
M  V30 78 1 70 69
M  V30 79 1 71 72
M  V30 80 1 71 73
M  V30 81 1 74 71
M  V30 82 1 75 78
M  V30 83 1 75 77
M  V30 84 1 76 75
M  V30 END BOND
M  V30 END CTAB
M  END
