
     RDKit          3D

  0  0  0  0  0  0  0  0  0  0999 V3000
M  V30 BEGIN CTAB
M  V30 COUNTS 108 114 0 0 0
M  V30 BEGIN ATOM
M  V30 1 N 6.1287 3.9058 8.2298 0
M  V30 2 N 3.6416 4.736 9.5802 0
M  V30 3 N 4.8315 3.1857 0.1788 0
M  V30 4 N 7.4462 11.2809 4.7956 0
M  V30 5 N 8.8805 8.8589 5.2372 0
M  V30 6 N -1.3706 4.364 5.6605 0
M  V30 7 N -0.9208 4.3007 2.7554 0
M  V30 8 N 2.4059 11.4555 0.9635 0
M  V30 9 N 7.2354 3.6439 1.8394 0
M  V30 10 N 0.0129 9.939 8.2809 0
M  V30 11 N 2.1313 8.8917 -0.5438 0
M  V30 12 N 1.5706 12.2956 7.2773 0
M  V30 13 C 6.8871 5.2695 6.3685 0
M  V30 14 C 1.8137 5.5314 8.1568 0
M  V30 15 C 3.2421 4.9641 0.5073 0
M  V30 16 C 5.0444 11.4773 4.9415 0
M  V30 17 C 7.5428 6.4696 6.0583 0
M  V30 18 C 1.77 6.8078 8.7517 0
M  V30 19 C 2.4242 4.1894 1.3212 0
M  V30 20 C 4.8908 11.2264 3.5766 0
M  V30 21 C 7.8214 6.7424 4.7189 0
M  V30 22 C 0.8803 7.7243 8.2116 0
M  V30 23 C 1.2046 4.7349 1.7117 0
M  V30 24 C 3.6265 11.3355 3.0401 0
M  V30 25 C 7.5255 5.8914 3.6569 0
M  V30 26 C -0.0538 7.4297 7.2298 0
M  V30 27 C 0.7573 6.0332 1.4014 0
M  V30 28 C 2.4578 11.641 3.7445 0
M  V30 29 C 6.9883 4.6149 4.0401 0
M  V30 30 C -0.0408 6.0878 6.7408 0
M  V30 31 C 1.6551 6.7969 0.5839 0
M  V30 32 C 2.6779 11.8483 5.1496 0
M  V30 33 C 6.6101 4.3531 5.3576 0
M  V30 34 C 0.8656 5.1495 7.2225 0
M  V30 35 C 2.8474 6.2405 0.1095 0
M  V30 36 C 3.9329 11.8264 5.708 0
M  V30 37 C 6.5852 5.0186 7.7882 0
M  V30 38 C 2.746 4.5604 8.7043 0
M  V30 39 C 4.5402 4.4186 0.0657 0
M  V30 40 C 6.3933 11.4337 5.4963 0
M  V30 41 C 6.0149 3.7967 9.6897 0
M  V30 42 C 4.4907 3.5894 9.8831 0
M  V30 43 C 6.2117 2.8366 -0.1569 0
M  V30 44 C 8.7007 11.2155 5.5036 0
M  V30 45 C 8.4823 8.0298 4.3686 0
M  V30 46 C 0.8581 9.1098 8.77 0
M  V30 47 C 0.2619 3.9058 2.4708 0
M  V30 48 C 3.4669 11.1937 1.5839 0
M  V30 49 C 9.5269 10.1027 4.8029 0
M  V30 50 C 0.0585 11.27 8.9087 0
M  V30 51 C -1.7767 3.393 3.5073 0
M  V30 52 C 2.4332 11.27 -0.4817 0
M  V30 53 C 6.7142 3.6003 3.0073 0
M  V30 54 C -1.0393 5.6077 5.781 0
M  V30 55 C 1.3066 8.1498 0.1168 0
M  V30 56 C 1.5035 12.0992 6.0145 0
M  V30 57 C 7.089 2.4329 1.0328 0
M  V30 58 C -2.4361 4.1349 4.6934 0
M  V30 59 C 1.5311 10.1463 -1.0255 0
M  V30 60 C 0.2204 12.4265 7.8722 0
M  V30 61 H 6.3287 4.6204 10.1386 0
M  V30 62 H 6.5266 3.021 10.0364 0
M  V30 63 H 7.7792 7.0839 6.7444 0
M  V30 64 H 2.326 7.0228 9.4926 0
M  V30 65 H 2.687 3.3232 1.6022 0
M  V30 66 H 5.633 10.982 3.0365 0
M  V30 67 H 4.1984 2.8377 9.3101 0
M  V30 68 H 4.3239 3.3286 10.821 0
M  V30 69 H 7.6693 6.1325 2.7481 0
M  V30 70 H -0.6644 8.0865 6.905 0
M  V30 71 H -0.0721 6.3813 1.708 0
M  V30 72 H 1.6033 11.7075 3.3357 0
M  V30 73 H 6.6294 3.6188 -0.6058 0
M  V30 74 H 6.1972 2.0947 -0.8066 0
M  V30 75 H 6.1485 3.5436 5.5656 0
M  V30 76 H 0.8329 4.2527 6.916 0
M  V30 77 H 3.3911 6.7424 -0.489 0
M  V30 78 H 4.0438 12.049 6.6277 0
M  V30 79 H 8.5524 10.9962 6.4561 0
M  V30 80 H 6.7376 5.7147 8.4123 0
M  V30 81 H 2.6689 3.6756 8.3649 0
M  V30 82 H 5.1798 5.011 -0.3175 0
M  V30 83 H 6.4911 11.5133 6.4379 0
M  V30 84 H 9.1768 12.085 5.4488 0
M  V30 85 H 8.6079 8.2316 3.4525 0
M  V30 86 H 1.4549 9.363 9.4634 0
M  V30 87 H 0.5399 3.0428 2.7627 0
M  V30 88 H 4.2159 10.898 1.0803 0
M  V30 89 H 9.4797 10.1932 3.8175 0
M  V30 90 H 10.4694 10.1256 5.0875 0
M  V30 91 H 0.8131 11.2973 9.551 0
M  V30 92 H -0.7778 11.4119 9.4232 0
M  V30 93 H -1.2385 2.638 3.8467 0
M  V30 94 H -2.4781 3.0319 2.9087 0
M  V30 95 H 3.371 11.09 -0.7555 0
M  V30 96 H 2.1657 12.1243 -0.9124 0
M  V30 97 H 6.1309 2.8824 3.2153 0
M  V30 98 H -1.4663 6.2394 5.2189 0
M  V30 99 H 0.4413 8.4902 0.3066 0
M  V30 100 H 0.6452 12.0981 5.6058 0
M  V30 101 H 6.6587 1.714 1.5584 0
M  V30 102 H 7.9745 2.1133 0.719 0
M  V30 103 H -2.8284 4.9946 4.3941 0
M  V30 104 H -3.1558 3.5818 5.0912 0
M  V30 105 H 0.6116 10.2423 -0.6861 0
M  V30 106 H 1.5138 10.1594 -2.0146 0
M  V30 107 H -0.4689 12.3599 7.1714 0
M  V30 108 H 0.1314 13.3047 8.3247 0
M  V30 END ATOM
M  V30 BEGIN BOND
M  V30 1 1 1 41
M  V30 2 1 2 42
M  V30 3 2 4 40
M  V30 4 1 4 44
M  V30 5 1 6 54
M  V30 6 1 7 51
M  V30 7 2 8 48
M  V30 8 2 9 53
M  V30 9 1 10 46
M  V30 10 1 10 50
M  V30 11 1 11 55
M  V30 12 1 12 60
M  V30 13 1 13 37
M  V30 14 1 14 38
M  V30 15 2 14 18
M  V30 16 1 15 19
M  V30 17 1 16 40
M  V30 18 2 16 36
M  V30 19 2 17 13
M  V30 20 1 17 63
M  V30 21 1 18 64
M  V30 22 1 19 65
M  V30 23 2 19 23
M  V30 24 1 20 16
M  V30 25 1 21 17
M  V30 26 1 22 18
M  V30 27 1 22 46
M  V30 28 1 23 47
M  V30 29 2 24 20
M  V30 30 1 24 28
M  V30 31 1 25 29
M  V30 32 2 25 21
M  V30 33 2 26 22
M  V30 34 1 27 71
M  V30 35 1 27 23
M  V30 36 2 28 32
M  V30 37 2 29 33
M  V30 38 2 30 34
M  V30 39 1 30 26
M  V30 40 2 31 27
M  V30 41 1 32 36
M  V30 42 1 32 56
M  V30 43 1 33 75
M  V30 44 1 33 13
M  V30 45 1 34 14
M  V30 46 2 35 15
M  V30 47 1 35 31
M  V30 48 1 36 78
M  V30 49 2 37 1
M  V30 50 1 37 80
M  V30 51 2 38 2
M  V30 52 2 39 3
M  V30 53 1 39 15
M  V30 54 1 40 83
M  V30 55 1 41 42
M  V30 56 1 41 62
M  V30 57 1 41 61
M  V30 58 1 42 68
M  V30 59 1 43 3
M  V30 60 1 43 57
M  V30 61 1 44 79
M  V30 62 1 45 21
M  V30 63 2 45 5
M  V30 64 1 46 86
M  V30 65 2 47 7
M  V30 66 1 47 87
M  V30 67 1 48 24
M  V30 68 1 49 90
M  V30 69 1 49 5
M  V30 70 1 49 44
M  V30 71 1 50 92
M  V30 72 1 50 91
M  V30 73 1 51 93
M  V30 74 1 51 58
M  V30 75 1 52 8
M  V30 76 1 53 97
M  V30 77 1 53 29
M  V30 78 1 54 30
M  V30 79 1 55 99
M  V30 80 1 55 31
M  V30 81 1 56 12
M  V30 82 1 57 101
M  V30 83 1 57 9
M  V30 84 1 58 104
M  V30 85 1 58 6
M  V30 86 1 59 105
M  V30 87 1 59 11
M  V30 88 1 59 52
M  V30 89 1 60 108
M  V30 90 1 60 50
M  V30 91 1 66 20
M  V30 92 1 67 42
M  V30 93 1 69 25
M  V30 94 1 70 26
M  V30 95 1 72 28
M  V30 96 1 73 43
M  V30 97 1 74 43
M  V30 98 1 76 34
M  V30 99 1 77 35
M  V30 100 1 81 38
M  V30 101 1 82 39
M  V30 102 1 84 44
M  V30 103 1 85 45
M  V30 104 1 88 48
M  V30 105 1 89 49
M  V30 106 1 94 51
M  V30 107 1 95 52
M  V30 108 1 96 52
M  V30 109 1 98 54
M  V30 110 1 100 56
M  V30 111 1 102 57
M  V30 112 1 103 58
M  V30 113 1 106 59
M  V30 114 1 107 60
M  V30 END BOND
M  V30 END CTAB
M  END
