
     RDKit          3D

  0  0  0  0  0  0  0  0  0  0999 V3000
M  V30 BEGIN CTAB
M  V30 COUNTS 126 132 0 0 1
M  V30 BEGIN ATOM
M  V30 1 N 8.8482 10.6602 8.6669 0
M  V30 2 N 9.3484 9.1469 11.1154 0
M  V30 3 N 13.8804 6.6517 3.1933 0
M  V30 4 N 12.4511 9.1729 3.5078 0
M  V30 5 C 9.3315 11.2828 9.9337 0 CFG=2
M  V30 6 C 8.7431 10.4847 11.1176 0
M  V30 7 C 8.8322 12.6613 10.1085 0
M  V30 8 C 14.4632 7.9635 2.9181 0 CFG=2
M  V30 9 C 13.3661 8.8981 2.3906 0
M  V30 10 C 15.4984 7.9358 1.8653 0
M  V30 11 C 9.7707 10.4603 7.7583 0
M  V30 12 C 9.3803 9.8978 6.4445 0
M  V30 13 C 8.0777 9.6833 6.0644 0
M  V30 14 C 7.783 9.1729 4.8162 0
M  V30 15 C 8.8613 8.8429 3.9381 0
M  V30 16 C 10.1668 9.1111 4.3062 0
M  V30 17 C 10.4305 9.6394 5.5774 0
M  V30 18 C 11.2582 8.8494 3.3331 0
M  V30 19 C 8.5347 8.1862 11.1602 0
M  V30 20 C 9.019 6.7557 11.1558 0
M  V30 21 C 10.3723 6.3688 11.1776 0
M  V30 22 C 13.9639 6.2404 4.4033 0
M  V30 23 H 9.1532 13.0189 10.9625 0
M  V30 24 H 10.331 11.2682 9.9687 0
M  V30 25 H 8.9439 10.9463 11.9705 0
M  V30 26 H 7.7614 10.4131 11.0247 0
M  V30 27 H 9.1616 13.2221 9.3746 0
M  V30 28 H 15.1127 7.5831 1.0375 0
M  V30 29 H 10.6773 10.6749 7.9396 0
M  V30 30 H 7.3719 9.8881 6.6673 0
M  V30 31 H 8.6792 8.4365 3.0994 0
M  V30 32 H 11.3268 9.8166 5.8438 0
M  V30 33 H 11.033 8.4072 2.5228 0
M  V30 34 H 7.6028 8.3633 11.1962 0
M  V30 35 H 11.0471 7.0369 11.2071 0
M  V30 36 H 14.3778 6.798 5.0531 0
M  V30 37 H 7.8524 12.658 10.103 0
M  V30 38 H 14.8508 8.3422 3.759 0
M  V30 39 H 13.7631 9.7418 2.0586 0
M  V30 40 H 12.8762 8.4658 1.6458 0
M  V30 41 H 16.2398 7.3636 2.1514 0
M  V30 42 H 15.8287 8.8461 1.7091 0
M  V30 43 N 5.1139 2.3326 8.6669 0
M  V30 44 N 14.1929 3.2624 8.6669 0
M  V30 45 N 6.1744 3.5225 11.1154 0
M  V30 46 N 12.6322 3.5859 11.1154 0
M  V30 47 N 6.0693 8.695 3.1933 0
M  V30 48 N 8.2053 0.9087 3.1933 0
M  V30 49 N 4.6005 6.1965 3.5078 0
M  V30 50 N 11.1034 0.8859 3.5078 0
M  V30 51 C 4.3331 2.4399 9.9337 0 CFG=2
M  V30 52 C 14.4904 2.5326 9.9337 0 CFG=2
M  V30 53 C 5.3185 2.3294 11.1176 0
M  V30 54 C 14.0935 3.4412 11.1176 0
M  V30 55 C 3.3889 1.3183 10.1085 0
M  V30 56 C 15.9339 2.2757 10.1085 0
M  V30 57 C 4.6418 8.5438 2.9181 0 CFG=2
M  V30 58 C 9.05 -0.252 2.9181 0 CFG=2
M  V30 59 C 4.3809 7.1263 2.3906 0
M  V30 60 C 10.408 0.2308 2.3906 0
M  V30 61 C 4.1482 9.4541 1.8653 0
M  V30 62 C 8.5084 -1.1346 1.8653 0
M  V30 63 C 4.8258 3.2316 7.7583 0
M  V30 64 C 13.5585 2.5635 7.7583 0
M  V30 65 C 5.5081 3.1747 6.4445 0
M  V30 66 C 13.2666 3.1828 6.4445 0
M  V30 67 C 6.3452 2.1538 6.0644 0
M  V30 68 C 13.7321 4.4182 6.0644 0
M  V30 69 C 6.9346 2.1538 4.8162 0
M  V30 70 C 13.4374 4.9286 4.8162 0
M  V30 71 C 6.6812 3.2527 3.9381 0
M  V30 72 C 12.6125 4.1597 3.9381 0
M  V30 73 C 5.7962 4.2491 4.3062 0
M  V30 74 C 12.1921 2.8951 4.3062 0
M  V30 75 C 5.2068 4.2134 5.5774 0
M  V30 76 C 12.5177 2.4025 5.5774 0
M  V30 77 C 5.4771 5.3252 3.3331 0
M  V30 78 C 11.4197 2.0807 3.3331 0
M  V30 79 C 7.4132 3.2982 11.1602 0
M  V30 80 C 12.2071 4.7709 11.1602 0
M  V30 81 C 8.4099 4.4328 11.1558 0
M  V30 82 C 10.7261 5.0668 11.1558 0
M  V30 83 C 8.0683 5.7983 11.1776 0
M  V30 84 C 9.7144 4.0882 11.1776 0
M  V30 85 C 6.3837 8.9729 4.4033 0
M  V30 86 C 7.8074 1.042 4.4033 0
M  V30 87 H 2.9187 1.4175 10.9625 0
M  V30 88 H 16.0831 1.819 10.9625 0
M  V30 89 H 3.846 3.3128 9.9687 0
M  V30 90 H 13.978 1.6743 9.9687 0
M  V30 91 H 4.8183 2.2725 11.9705 0
M  V30 92 H 14.3928 3.0365 11.9705 0
M  V30 93 H 5.8713 1.515 11.0247 0
M  V30 94 H 14.5223 4.3272 11.0247 0
M  V30 95 H 2.7385 1.3232 9.3746 0
M  V30 96 H 16.2548 1.7101 9.3746 0
M  V30 97 H 4.6465 9.2964 1.0375 0
M  V30 98 H 8.3958 -0.6242 1.0375 0
M  V30 99 H 4.1866 3.9094 7.9396 0
M  V30 100 H 13.291 1.671 7.9396 0
M  V30 101 H 6.5207 1.4402 6.6673 0
M  V30 102 H 14.2624 4.927 6.6673 0
M  V30 103 H 7.1242 3.2982 3.0994 0
M  V30 104 H 12.3516 4.5206 3.0994 0
M  V30 105 H 4.6052 4.901 5.8438 0
M  V30 106 H 12.223 1.5378 5.8438 0
M  V30 107 H 5.9726 5.3512 2.5228 0
M  V30 108 H 11.1494 2.4968 2.5228 0
M  V30 109 H 7.7257 2.4025 11.1962 0
M  V30 110 H 12.8265 5.4894 11.1962 0
M  V30 111 H 7.1523 6.0486 11.2071 0
M  V30 112 H 9.9556 3.1698 11.2071 0
M  V30 113 H 5.6939 9.0526 5.0531 0
M  V30 114 H 8.0833 0.4048 5.0531 0
M  V30 115 H 3.8816 0.4714 10.103 0
M  V30 116 H 16.4209 3.1259 10.103 0
M  V30 117 H 4.12 8.6901 3.759 0
M  V30 118 H 9.1842 -0.777 3.759 0
M  V30 119 H 3.4518 7.0483 2.0586 0
M  V30 120 H 10.9401 -0.5348 2.0586 0
M  V30 121 H 5.0003 6.9183 1.6458 0
M  V30 122 H 10.2785 0.8713 1.6458 0
M  V30 123 H 4.273 10.3823 2.1514 0
M  V30 124 H 7.6422 -1.4906 2.1514 0
M  V30 125 H 3.1947 9.285 1.7091 0
M  V30 126 H 9.1316 -1.8759 1.7091 0
M  V30 END ATOM
M  V30 BEGIN BOND
M  V30 1 1 1 5
M  V30 2 1 2 6
M  V30 3 2 2 19
M  V30 4 2 3 22
M  V30 5 1 5 24 CFG=1
M  V30 6 1 5 7
M  V30 7 1 5 6
M  V30 8 1 6 25
M  V30 9 1 7 23
M  V30 10 1 8 3
M  V30 11 1 8 38 CFG=1
M  V30 12 1 9 8
M  V30 13 1 9 4
M  V30 14 1 10 41
M  V30 15 1 10 8
M  V30 16 1 11 29
M  V30 17 2 11 1
M  V30 18 1 12 11
M  V30 19 2 13 12
M  V30 20 1 13 30
M  V30 21 1 14 13
M  V30 22 1 15 16
M  V30 23 2 15 14
M  V30 24 2 16 17
M  V30 25 1 17 32
M  V30 26 1 17 12
M  V30 27 2 18 4
M  V30 28 1 18 16
M  V30 29 1 19 34
M  V30 30 1 20 19
M  V30 31 2 20 83
M  V30 32 1 20 21
M  V30 33 1 21 35
M  V30 34 1 22 70
M  V30 35 1 22 36
M  V30 36 1 26 6
M  V30 37 1 27 7
M  V30 38 1 28 10
M  V30 39 1 31 15
M  V30 40 1 33 18
M  V30 41 1 37 7
M  V30 42 1 39 9
M  V30 43 1 40 9
M  V30 44 1 42 10
M  V30 45 1 43 51
M  V30 46 1 44 52
M  V30 47 1 45 53
M  V30 48 2 45 79
M  V30 49 1 46 54
M  V30 50 2 46 80
M  V30 51 2 47 85
M  V30 52 2 48 86
M  V30 53 1 51 89 CFG=1
M  V30 54 1 51 55
M  V30 55 1 51 53
M  V30 56 1 52 90 CFG=1
M  V30 57 1 52 56
M  V30 58 1 52 54
M  V30 59 1 53 91
M  V30 60 1 54 92
M  V30 61 1 55 87
M  V30 62 1 56 88
M  V30 63 1 57 47
M  V30 64 1 57 117 CFG=1
M  V30 65 1 58 48
M  V30 66 1 58 118 CFG=1
M  V30 67 1 59 57
M  V30 68 1 59 49
M  V30 69 1 60 58
M  V30 70 1 60 50
M  V30 71 1 61 123
M  V30 72 1 61 57
M  V30 73 1 62 124
M  V30 74 1 62 58
M  V30 75 1 63 99
M  V30 76 2 63 43
M  V30 77 1 64 100
M  V30 78 2 64 44
M  V30 79 1 65 63
M  V30 80 1 66 64
M  V30 81 2 67 65
M  V30 82 1 67 101
M  V30 83 2 68 66
M  V30 84 1 68 102
M  V30 85 1 69 67
M  V30 86 1 70 68
M  V30 87 1 71 73
M  V30 88 2 71 69
M  V30 89 1 72 74
M  V30 90 2 72 70
M  V30 91 2 73 75
M  V30 92 2 74 76
M  V30 93 1 75 105
M  V30 94 1 75 65
M  V30 95 1 76 106
M  V30 96 1 76 66
M  V30 97 2 77 49
M  V30 98 1 77 73
M  V30 99 2 78 50
M  V30 100 1 78 74
M  V30 101 1 79 109
M  V30 102 1 80 110
M  V30 103 1 81 79
M  V30 104 2 81 84
M  V30 105 1 81 83
M  V30 106 1 82 80
M  V30 107 1 82 84
M  V30 108 2 82 21
M  V30 109 1 83 111
M  V30 110 1 84 112
M  V30 111 1 85 14
M  V30 112 1 85 113
M  V30 113 1 86 69
M  V30 114 1 86 114
M  V30 115 1 93 53
M  V30 116 1 94 54
M  V30 117 1 95 55
M  V30 118 1 96 56
M  V30 119 1 97 61
M  V30 120 1 98 62
M  V30 121 1 103 71
M  V30 122 1 104 72
M  V30 123 1 107 77
M  V30 124 1 108 78
M  V30 125 1 115 55
M  V30 126 1 116 56
M  V30 127 1 119 59
M  V30 128 1 120 60
M  V30 129 1 121 59
M  V30 130 1 122 60
M  V30 131 1 125 61
M  V30 132 1 126 62
M  V30 END BOND
M  V30 END CTAB
M  END
