
     RDKit          3D

  0  0  0  0  0  0  0  0  0  0999 V3000
M  V30 BEGIN CTAB
M  V30 COUNTS 168 180 0 0 1
M  V30 BEGIN ATOM
M  V30 1 N 19.715 5.2958 25.4897 0
M  V30 2 C 21.333 4.8692 27.8206 0
M  V30 3 C 20.2269 4.1044 27.4853 0
M  V30 4 C 19.4119 4.4268 26.3153 0
M  V30 5 C 18.8482 5.4934 24.3392 0 CFG=2
M  V30 6 C 19.6565 5.2229 23.0789 0
M  V30 7 C 18.8158 5.4957 21.8389 0
M  V30 8 H 21.5512 5.6048 27.2949 0
M  V30 9 H 18.6223 3.9531 26.1863 0
M  V30 10 H 18.0891 4.8757 24.3858 0
M  V30 11 H 19.9516 4.2978 23.0739 0
M  V30 12 H 20.4426 5.7908 23.069 0
M  V30 13 H 19.3341 5.3097 21.0403 0
M  V30 14 H 18.037 4.9154 21.8339 0
M  V30 15 N 19.5042 0.6897 29.885 0
M  V30 16 N 24.1103 5.085 30.0958 0
M  V30 17 N 17.485 7.1042 25.4897 0
M  V30 18 N 24.1103 7.315 31.9042 0
M  V30 19 N 17.6958 0.6897 32.115 0
M  V30 20 N 13.0897 5.085 31.9042 0
M  V30 21 N 13.0897 7.315 30.0958 0
M  V30 22 N 17.6958 11.7103 29.885 0
M  V30 23 N 19.715 7.1042 36.5103 0
M  V30 24 N 19.5042 11.7103 32.115 0
M  V30 25 N 17.485 5.2958 36.5103 0
M  V30 26 C 19.9308 3.0206 28.267 0
M  V30 27 C 21.7794 3.467 29.6692 0
M  V30 28 C 15.867 7.5308 27.8206 0
M  V30 29 C 21.7794 8.933 32.3308 0
M  V30 30 C 17.2692 3.0206 33.733 0
M  V30 31 C 15.4206 3.467 32.3308 0
M  V30 32 C 15.4206 8.933 29.6692 0
M  V30 33 C 17.2692 9.3794 28.267 0
M  V30 34 C 21.333 7.5308 34.1794 0
M  V30 35 C 19.9308 9.3794 33.733 0
M  V30 36 C 15.867 4.8692 34.1794 0
M  V30 37 C 20.6956 2.6853 29.3731 0
M  V30 38 C 22.1147 4.5731 28.9044 0
M  V30 39 C 16.9731 8.2956 27.4853 0
M  V30 40 C 22.1147 7.8269 33.0956 0
M  V30 41 C 16.5044 2.6853 32.6269 0
M  V30 42 C 15.0853 4.5731 33.0956 0
M  V30 43 C 15.0853 7.8269 28.9044 0
M  V30 44 C 16.5044 9.7147 29.3731 0
M  V30 45 C 20.2269 8.2956 34.5147 0
M  V30 46 C 20.6956 9.7147 32.6269 0
M  V30 47 C 16.9731 4.1044 34.5147 0
M  V30 48 C 20.3732 1.5153 30.188 0
M  V30 49 C 23.2847 5.388 29.2268 0
M  V30 50 C 17.788 7.9732 26.3153 0
M  V30 51 C 23.2847 7.0119 32.7732 0
M  V30 52 C 16.8268 1.5153 31.812 0
M  V30 53 C 13.9153 5.388 32.7732 0
M  V30 54 C 13.9153 7.0119 29.2268 0
M  V30 55 C 16.8268 10.8847 30.188 0
M  V30 56 C 19.4119 7.9732 35.6847 0
M  V30 57 C 20.3732 10.8847 31.812 0
M  V30 58 C 17.788 4.4268 35.6847 0
M  V30 59 C 19.3065 -0.4608 30.7518 0 CFG=1
M  V30 60 C 25.2608 5.9517 30.2934 0 CFG=1
M  V30 61 C 18.3517 6.9065 24.3392 0 CFG=2
M  V30 62 C 25.2608 6.4482 31.7066 0 CFG=1
M  V30 63 C 17.8934 -0.4608 31.2482 0 CFG=1
M  V30 64 C 11.9392 5.9517 31.7066 0 CFG=1
M  V30 65 C 11.9392 6.4482 30.2934 0 CFG=1
M  V30 66 C 17.8934 12.8608 30.7518 0 CFG=1
M  V30 67 C 18.8482 6.9065 37.6608 0 CFG=1
M  V30 68 C 19.3065 12.8608 31.2482 0 CFG=1
M  V30 69 C 18.3517 5.4934 37.6608 0 CFG=1
M  V30 70 C 19.5771 -1.7211 29.9435 0
M  V30 71 C 26.5211 5.1435 30.0229 0
M  V30 72 C 17.5435 7.1771 23.0789 0
M  V30 73 C 26.5211 7.2565 31.9771 0
M  V30 74 C 17.6229 -1.7211 32.0565 0
M  V30 75 C 10.6789 5.1435 31.9771 0
M  V30 76 C 10.6789 7.2565 30.0229 0
M  V30 77 C 17.6229 14.1211 29.9435 0
M  V30 78 C 19.6565 7.1771 38.9211 0
M  V30 79 C 19.5771 14.1211 32.0565 0
M  V30 80 C 17.5435 5.2229 38.9211 0
M  V30 81 C 19.3043 -2.9611 30.7842 0
M  V30 82 C 27.7611 5.9842 30.2957 0
M  V30 83 C 18.3842 6.9043 21.8389 0
M  V30 84 C 27.7611 6.4158 31.7043 0
M  V30 85 C 17.8957 -2.9611 31.2158 0
M  V30 86 C 9.4389 5.9842 31.7043 0
M  V30 87 C 9.4389 6.4158 30.2957 0
M  V30 88 C 17.8957 15.3611 30.7842 0
M  V30 89 C 18.8158 6.9043 40.1611 0
M  V30 90 C 19.3043 15.3611 31.2158 0
M  V30 91 C 18.3842 5.4957 40.1611 0
M  V30 92 H 19.1952 2.4949 28.0488 0
M  V30 93 H 22.3051 3.2488 30.4048 0
M  V30 94 H 15.6488 6.7952 27.2949 0
M  V30 95 H 22.3051 9.1512 31.5952 0
M  V30 96 H 18.0048 2.4949 33.9512 0
M  V30 97 H 14.8949 3.2488 31.5952 0
M  V30 98 H 14.8949 9.1512 30.4048 0
M  V30 99 H 18.0048 9.9051 28.0488 0
M  V30 100 H 21.5512 6.7952 34.7051 0
M  V30 101 H 19.1952 9.9051 33.9512 0
M  V30 102 H 15.6488 5.6048 34.7051 0
M  V30 103 H 20.8469 1.3863 30.9777 0
M  V30 104 H 23.4137 6.1777 28.7531 0
M  V30 105 H 18.5777 8.4469 26.1863 0
M  V30 106 H 23.4137 6.2223 33.2469 0
M  V30 107 H 16.3531 1.3863 31.0223 0
M  V30 108 H 13.7863 6.1777 33.2469 0
M  V30 109 H 13.7863 6.2223 28.7531 0
M  V30 110 H 16.3531 11.0137 30.9777 0
M  V30 111 H 18.6223 8.4469 35.8137 0
M  V30 112 H 20.8469 11.0137 31.0223 0
M  V30 113 H 18.5777 3.9531 35.8137 0
M  V30 114 H 19.9243 -0.4142 31.5109 0
M  V30 115 H 25.2142 6.7109 29.6757 0
M  V30 116 H 19.1109 7.5243 24.3858 0
M  V30 117 H 25.2142 5.6891 32.3243 0
M  V30 118 H 17.2757 -0.4142 30.4891 0
M  V30 119 H 11.9858 6.7109 32.3243 0
M  V30 120 H 11.9858 5.6891 29.6757 0
M  V30 121 H 17.2757 12.8142 31.5109 0
M  V30 122 H 18.0891 7.5243 37.6142 0
M  V30 123 H 19.9243 12.8142 30.4891 0
M  V30 124 H 19.1109 4.8757 37.6142 0
M  V30 125 H 20.5022 -1.7261 29.6484 0
M  V30 126 H 26.5261 4.8484 29.0978 0
M  V30 127 H 17.2484 8.1022 23.0739 0
M  V30 128 H 26.5261 7.5516 32.9022 0
M  V30 129 H 16.6978 -1.7261 32.3516 0
M  V30 130 H 10.6739 4.8484 32.9022 0
M  V30 131 H 10.6739 7.5516 29.0978 0
M  V30 132 H 16.6978 14.1261 29.6484 0
M  V30 133 H 19.9516 8.1022 38.9261 0
M  V30 134 H 20.5022 14.1261 32.3516 0
M  V30 135 H 17.2484 4.2978 38.9261 0
M  V30 136 H 19.0092 -1.731 29.1574 0
M  V30 137 H 26.531 4.3574 30.5908 0
M  V30 138 H 16.7574 6.6092 23.069 0
M  V30 139 H 26.531 8.0426 31.4092 0
M  V30 140 H 18.1908 -1.731 32.8426 0
M  V30 141 H 10.669 4.3574 31.4092 0
M  V30 142 H 10.669 8.0426 30.5908 0
M  V30 143 H 18.1908 14.131 29.1574 0
M  V30 144 H 20.4426 6.6092 38.931 0
M  V30 145 H 19.0092 14.131 32.8426 0
M  V30 146 H 16.7574 5.7908 38.931 0
M  V30 147 H 19.4903 -3.7597 30.2659 0
M  V30 148 H 28.5597 5.4659 30.1097 0
M  V30 149 H 17.8659 7.0903 21.0403 0
M  V30 150 H 28.5597 6.9341 31.8903 0
M  V30 151 H 17.7097 -3.7597 31.7341 0
M  V30 152 H 8.6403 5.4659 31.8903 0
M  V30 153 H 8.6403 6.9341 30.1097 0
M  V30 154 H 17.7097 16.1597 30.2659 0
M  V30 155 H 19.3341 7.0903 40.9597 0
M  V30 156 H 19.4903 16.1597 31.7341 0
M  V30 157 H 17.8659 5.3097 40.9597 0
M  V30 158 H 19.8846 -2.9661 31.563 0
M  V30 159 H 27.7661 6.763 29.7154 0
M  V30 160 H 19.163 7.4846 21.8339 0
M  V30 161 H 27.7661 5.637 32.2846 0
M  V30 162 H 17.3154 -2.9661 30.437 0
M  V30 163 H 9.4339 6.763 32.2846 0
M  V30 164 H 9.4339 5.637 29.7154 0
M  V30 165 H 17.3154 15.3661 31.563 0
M  V30 166 H 18.037 7.4846 40.1661 0
M  V30 167 H 19.8846 15.3661 30.437 0
M  V30 168 H 19.163 4.9154 40.1661 0
M  V30 END ATOM
M  V30 BEGIN BOND
M  V30 1 2 1 4
M  V30 2 2 2 38
M  V30 3 1 3 2
M  V30 4 2 3 26
M  V30 5 1 4 3
M  V30 6 1 5 10 CFG=1
M  V30 7 1 5 1
M  V30 8 1 6 5
M  V30 9 1 7 6
M  V30 10 1 8 2
M  V30 11 1 9 4
M  V30 12 1 11 6
M  V30 13 1 12 6
M  V30 14 1 13 7
M  V30 15 1 14 7
M  V30 16 2 15 48
M  V30 17 1 15 59
M  V30 18 1 16 60
M  V30 19 2 17 50
M  V30 20 2 18 51
M  V30 21 2 20 53
M  V30 22 1 21 65
M  V30 23 2 22 55
M  V30 24 1 22 66
M  V30 25 1 23 67
M  V30 26 1 25 69
M  V30 27 1 26 37
M  V30 28 1 27 93
M  V30 29 1 28 43
M  V30 30 1 29 46
M  V30 31 2 29 40
M  V30 32 1 30 96
M  V30 33 2 30 47
M  V30 34 2 31 41
M  V30 35 1 31 42
M  V30 36 1 32 98
M  V30 37 2 33 44
M  V30 38 2 34 45
M  V30 39 1 34 100
M  V30 40 1 35 101
M  V30 41 1 35 45
M  V30 42 1 36 47
M  V30 43 1 36 102
M  V30 44 2 37 27
M  V30 45 1 37 48
M  V30 46 1 38 49
M  V30 47 1 38 27
M  V30 48 2 39 28
M  V30 49 1 39 33
M  V30 50 1 40 34
M  V30 51 1 41 30
M  V30 52 2 42 36
M  V30 53 1 43 54
M  V30 54 2 43 32
M  V30 55 1 44 32
M  V30 56 1 44 55
M  V30 57 1 45 56
M  V30 58 2 46 35
M  V30 59 1 47 58
M  V30 60 1 48 103
M  V30 61 2 49 16
M  V30 62 1 50 39
M  V30 63 1 51 40
M  V30 64 1 51 106
M  V30 65 2 52 19
M  V30 66 1 52 41
M  V30 67 1 53 42
M  V30 68 1 53 108
M  V30 69 2 54 21
M  V30 70 1 55 110
M  V30 71 1 56 111
M  V30 72 2 56 23
M  V30 73 2 57 24
M  V30 74 1 57 46
M  V30 75 1 58 113
M  V30 76 2 58 25
M  V30 77 1 59 63
M  V30 78 1 59 114 CFG=1
M  V30 79 1 60 115 CFG=3
M  V30 80 1 60 62
M  V30 81 1 61 5
M  V30 82 1 61 116 CFG=1
M  V30 83 1 61 17
M  V30 84 1 62 18
M  V30 85 1 62 73
M  V30 86 1 62 117 CFG=1
M  V30 87 1 63 118 CFG=3
M  V30 88 1 63 74
M  V30 89 1 63 19
M  V30 90 1 64 20
M  V30 91 1 64 75
M  V30 92 1 64 119 CFG=1
M  V30 93 1 65 120 CFG=3
M  V30 94 1 65 64
M  V30 95 1 66 68
M  V30 96 1 66 121 CFG=1
M  V30 97 1 67 122 CFG=3
M  V30 98 1 67 69
M  V30 99 1 67 78
M  V30 100 1 68 123 CFG=3
M  V30 101 1 68 79
M  V30 102 1 68 24
M  V30 103 1 69 124 CFG=3
M  V30 104 1 69 80
M  V30 105 1 70 59
M  V30 106 1 70 81
M  V30 107 1 71 60
M  V30 108 1 71 82
M  V30 109 1 71 137
M  V30 110 1 72 61
M  V30 111 1 73 128
M  V30 112 1 74 129
M  V30 113 1 74 140
M  V30 114 1 75 130
M  V30 115 1 76 65
M  V30 116 1 76 87
M  V30 117 1 76 142
M  V30 118 1 77 66
M  V30 119 1 77 88
M  V30 120 1 78 133
M  V30 121 1 78 144
M  V30 122 1 78 89
M  V30 123 1 79 134
M  V30 124 1 79 145
M  V30 125 1 80 135
M  V30 126 1 80 146
M  V30 127 1 80 91
M  V30 128 1 81 85
M  V30 129 1 81 158
M  V30 130 1 82 84
M  V30 131 1 83 7
M  V30 132 1 83 72
M  V30 133 1 84 150
M  V30 134 1 84 73
M  V30 135 1 84 161
M  V30 136 1 85 151
M  V30 137 1 85 74
M  V30 138 1 86 152
M  V30 139 1 86 75
M  V30 140 1 86 163
M  V30 141 1 87 86
M  V30 142 1 88 90
M  V30 143 1 88 165
M  V30 144 1 89 166
M  V30 145 1 89 155
M  V30 146 1 90 156
M  V30 147 1 90 79
M  V30 148 1 91 89
M  V30 149 1 91 168
M  V30 150 1 91 157
M  V30 151 1 92 26
M  V30 152 1 94 28
M  V30 153 1 95 29
M  V30 154 1 97 31
M  V30 155 1 99 33
M  V30 156 1 104 49
M  V30 157 1 105 50
M  V30 158 1 107 52
M  V30 159 1 109 54
M  V30 160 1 112 57
M  V30 161 1 125 70
M  V30 162 1 126 71
M  V30 163 1 127 72
M  V30 164 1 131 76
M  V30 165 1 132 77
M  V30 166 1 136 70
M  V30 167 1 138 72
M  V30 168 1 139 73
M  V30 169 1 141 75
M  V30 170 1 143 77
M  V30 171 1 147 81
M  V30 172 1 148 82
M  V30 173 1 149 83
M  V30 174 1 153 87
M  V30 175 1 154 88
M  V30 176 1 159 82
M  V30 177 1 160 83
M  V30 178 1 162 85
M  V30 179 1 164 87
M  V30 180 1 167 90
M  V30 END BOND
M  V30 END CTAB
M  END
