
     RDKit          3D

  0  0  0  0  0  0  0  0  0  0999 V3000
M  V30 BEGIN CTAB
M  V30 COUNTS 151 160 0 0 1
M  V30 BEGIN ATOM
M  V30 1 N 10.9259 5.6338 13.0931 0
M  V30 2 C 10.7028 2.8412 15.4082 0
M  V30 3 H 11.4446 3.0569 15.9294 0
M  V30 4 C 11.881 6.7005 12.8361 0 CFG=2
M  V30 5 H 12.6519 6.589 13.4325 0
M  V30 6 C 10.3853 3.6218 14.3125 0
M  V30 7 C 11.2265 4.7732 13.9804 0
M  V30 8 H 12.024 4.8823 14.4434 0
M  V30 9 C 11.3186 8.075 13.0155 0
M  V30 10 H 10.3828 8.0968 12.7658 0
M  V30 11 H 11.401 8.3611 13.9416 0
M  V30 12 C 12.121 8.9623 12.121 0
M  V30 13 H 12.7077 9.5295 12.6471 0
M  V30 14 N 13.3161 5.6338 11.1489 0
M  V30 15 C 13.5392 2.8412 8.8338 0
M  V30 16 H 12.7974 3.0569 8.3126 0
M  V30 17 C 12.361 6.7005 11.4059 0 CFG=2
M  V30 18 H 11.5901 6.589 10.8095 0
M  V30 19 C 13.8567 3.6218 9.9295 0
M  V30 20 C 13.0155 4.7732 10.2616 0
M  V30 21 H 12.218 4.8823 9.7986 0
M  V30 22 C 12.9234 8.075 11.2265 0
M  V30 23 H 13.8591 8.0968 11.4762 0
M  V30 24 H 12.841 8.3611 10.3004 0
M  V30 25 H 11.5343 9.5295 11.5949 0
M  V30 26 N 11.1489 1.1951 17.7548 0
M  V30 27 C 8.8338 1.4182 14.9622 0
M  V30 28 H 8.3126 0.6764 15.1779 0
M  V30 29 C 11.4059 0.24 18.8215 0 CFG=2
M  V30 30 H 10.8095 -0.5309 18.71 0
M  V30 31 C 9.9295 1.7357 15.7428 0
M  V30 32 C 10.2616 0.8945 16.8943 0
M  V30 33 H 9.7986 0.097 17.0033 0
M  V30 34 C 11.2265 0.8024 20.196 0
M  V30 35 H 11.4762 1.7381 20.2178 0
M  V30 36 H 10.3004 0.72 20.4821 0
M  V30 37 C 12.121 -0 21.0833 0
M  V30 38 H 11.5949 -0.5867 21.6505 0
M  V30 39 N 6.4872 0.9721 13.3161 0
M  V30 40 C 9.2798 3.2872 13.5392 0
M  V30 41 H 9.0641 3.8084 12.7974 0
M  V30 42 C 5.4205 0.7151 12.361 0 CFG=2
M  V30 43 H 5.532 1.3115 11.5901 0
M  V30 44 C 8.4992 2.1915 13.8567 0
M  V30 45 C 7.3477 1.8594 13.0155 0
M  V30 46 H 7.2387 2.3224 12.218 0
M  V30 47 C 4.046 0.8945 12.9234 0
M  V30 48 H 4.0242 0.6448 13.8592 0
M  V30 49 H 3.7599 1.8206 12.841 0
M  V30 50 C 3.1587 -0 12.121 0
M  V30 51 H 2.5915 0.5261 11.5343 0
M  V30 52 N 13.0931 -1.1951 17.7548 0
M  V30 53 C 15.4082 -1.4182 14.9622 0
M  V30 54 H 15.9294 -0.6764 15.1779 0
M  V30 55 C 12.8361 -0.24 18.8215 0 CFG=2
M  V30 56 H 13.4325 0.5309 18.71 0
M  V30 57 C 14.3125 -1.7357 15.7428 0
M  V30 58 C 13.9804 -0.8945 16.8943 0
M  V30 59 H 14.4434 -0.097 17.0033 0
M  V30 60 C 13.0155 -0.8024 20.196 0
M  V30 61 H 12.7658 -1.7382 20.2178 0
M  V30 62 H 13.9416 -0.72 20.4821 0
M  V30 63 H 12.6471 0.5867 21.6505 0
M  V30 64 N 13.0931 1.1951 6.4872 0
M  V30 65 C 15.4082 1.4182 9.2798 0
M  V30 66 H 15.9294 0.6764 9.0641 0
M  V30 67 C 12.8361 0.24 5.4205 0 CFG=2
M  V30 68 H 13.4325 -0.5309 5.532 0
M  V30 69 C 14.3125 1.7357 8.4992 0
M  V30 70 C 13.9804 0.8945 7.3478 0
M  V30 71 H 14.4434 0.097 7.2387 0
M  V30 72 C 13.0155 0.8024 4.046 0
M  V30 73 H 12.7658 1.7382 4.0242 0
M  V30 74 H 13.9416 0.72 3.7599 0
M  V30 75 C 12.121 -0 3.1587 0
M  V30 76 H 12.6471 -0.5867 2.5915 0
M  V30 77 N 11.1489 -1.1951 6.4872 0
M  V30 78 C 8.8338 -1.4182 9.2798 0
M  V30 79 H 8.3126 -0.6764 9.0641 0
M  V30 80 C 11.4059 -0.24 5.4205 0 CFG=2
M  V30 81 H 10.8095 0.5309 5.532 0
M  V30 82 C 9.9295 -1.7357 8.4992 0
M  V30 83 C 10.2616 -0.8945 7.3478 0
M  V30 84 H 9.7986 -0.097 7.2387 0
M  V30 85 C 11.2265 -0.8024 4.046 0
M  V30 86 H 11.4762 -1.7382 4.0242 0
M  V30 87 H 10.3004 -0.72 3.7599 0
M  V30 88 H 11.5949 0.5867 2.5915 0
M  V30 89 N 17.7548 0.9721 10.9259 0
M  V30 90 C 14.9622 3.2872 10.7028 0
M  V30 91 H 15.1779 3.8084 11.4446 0
M  V30 92 C 18.8215 0.7151 11.881 0 CFG=2
M  V30 93 H 18.71 1.3115 12.6519 0
M  V30 94 C 15.7428 2.1915 10.3853 0
M  V30 95 C 16.8943 1.8594 11.2265 0
M  V30 96 H 17.0033 2.3224 12.024 0
M  V30 97 C 20.196 0.8945 11.3186 0
M  V30 98 H 20.2178 0.6448 10.3828 0
M  V30 99 H 20.4821 1.8206 11.401 0
M  V30 100 C 21.0833 -0 12.121 0
M  V30 101 H 21.6505 0.5261 12.7077 0
M  V30 102 N 6.4872 -0.9721 10.9259 0
M  V30 103 C 9.2798 -3.2872 10.7028 0
M  V30 104 H 9.0641 -3.8084 11.4446 0
M  V30 105 C 5.4205 -0.7151 11.881 0 CFG=2
M  V30 106 H 5.532 -1.3115 12.6519 0
M  V30 107 C 8.4992 -2.1915 10.3853 0
M  V30 108 C 7.3477 -1.8594 11.2265 0
M  V30 109 H 7.2387 -2.3224 12.024 0
M  V30 110 C 4.046 -0.8945 11.3186 0
M  V30 111 H 4.0242 -0.6448 10.3828 0
M  V30 112 H 3.7599 -1.8206 11.401 0
M  V30 113 H 2.5915 -0.5261 12.7077 0
M  V30 114 N 13.3161 -5.6338 13.0931 0
M  V30 115 C 13.5392 -2.8412 15.4082 0
M  V30 116 H 12.7974 -3.0569 15.9294 0
M  V30 117 C 12.361 -6.7005 12.8361 0 CFG=2
M  V30 118 H 11.5901 -6.589 13.4325 0
M  V30 119 C 13.8567 -3.6218 14.3125 0
M  V30 120 C 13.0155 -4.7733 13.9804 0
M  V30 121 H 12.218 -4.8823 14.4434 0
M  V30 122 C 12.9234 -8.075 13.0155 0
M  V30 123 H 13.8591 -8.0968 12.7658 0
M  V30 124 H 12.841 -8.3611 13.9416 0
M  V30 125 C 12.121 -8.9623 12.121 0
M  V30 126 H 11.5343 -9.5295 12.6471 0
M  V30 127 N 10.9259 -5.6338 11.1489 0
M  V30 128 C 10.7028 -2.8412 8.8338 0
M  V30 129 H 11.4446 -3.0569 8.3126 0
M  V30 130 C 11.881 -6.7005 11.4059 0 CFG=2
M  V30 131 H 12.6519 -6.589 10.8095 0
M  V30 132 C 10.3853 -3.6218 9.9295 0
M  V30 133 C 11.2265 -4.7733 10.2616 0
M  V30 134 H 12.024 -4.8823 9.7986 0
M  V30 135 C 11.3186 -8.075 11.2265 0
M  V30 136 H 10.3828 -8.0968 11.4762 0
M  V30 137 H 11.401 -8.3611 10.3004 0
M  V30 138 H 12.7077 -9.5295 11.5949 0
M  V30 139 N 17.7548 -0.9721 13.3161 0
M  V30 140 C 14.9622 -3.2872 13.5392 0
M  V30 141 H 15.1779 -3.8084 12.7974 0
M  V30 142 C 18.8215 -0.7151 12.361 0 CFG=2
M  V30 143 H 18.71 -1.3115 11.5901 0
M  V30 144 C 15.7428 -2.1915 13.8567 0
M  V30 145 C 16.8943 -1.8594 13.0155 0
M  V30 146 H 17.0033 -2.3224 12.218 0
M  V30 147 C 20.196 -0.8945 12.9234 0
M  V30 148 H 20.2178 -0.6448 13.8592 0
M  V30 149 H 20.4821 -1.8206 12.841 0
M  V30 150 H 21.6505 -0.5261 11.5343 0
M  V30 151 H 12.7077 9.5295 12.6471 0
M  V30 END ATOM
M  V30 BEGIN BOND
M  V30 1 2 1 7
M  V30 2 1 2 31
M  V30 3 1 2 3
M  V30 4 1 4 9 CFG=1
M  V30 5 1 4 1
M  V30 6 1 4 5
M  V30 7 2 6 2
M  V30 8 1 7 6
M  V30 9 1 7 8
M  V30 10 1 9 11
M  V30 11 1 10 9
M  V30 12 1 12 13
M  V30 13 1 14 17
M  V30 14 1 15 19
M  V30 15 1 16 15
M  V30 16 1 17 18 CFG=3
M  V30 17 1 17 4
M  V30 18 1 19 20
M  V30 19 2 19 90
M  V30 20 2 20 14
M  V30 21 1 21 20
M  V30 22 1 22 17
M  V30 23 1 22 23
M  V30 24 1 24 22
M  V30 25 1 25 12
M  V30 26 1 26 29
M  V30 27 1 27 28
M  V30 28 2 27 31
M  V30 29 1 29 30 CFG=3
M  V30 30 1 29 55
M  V30 31 1 29 34
M  V30 32 1 31 32
M  V30 33 1 32 33
M  V30 34 2 32 26
M  V30 35 1 34 35
M  V30 36 1 34 36
M  V30 37 1 34 37
M  V30 38 1 37 63
M  V30 39 1 37 38
M  V30 40 2 40 44
M  V30 41 1 40 6
M  V30 42 1 41 40
M  V30 43 1 42 43 CFG=3
M  V30 44 1 42 47
M  V30 45 1 42 39
M  V30 46 1 44 27
M  V30 47 2 45 39
M  V30 48 1 45 44
M  V30 49 1 46 45
M  V30 50 1 47 48
M  V30 51 1 49 47
M  V30 52 1 50 113
M  V30 53 1 50 47
M  V30 54 1 51 50
M  V30 55 1 52 55
M  V30 56 1 53 54
M  V30 57 2 53 57
M  V30 58 1 55 56 CFG=3
M  V30 59 1 55 60
M  V30 60 1 57 58
M  V30 61 1 58 59
M  V30 62 2 58 52
M  V30 63 1 60 61
M  V30 64 1 60 62
M  V30 65 1 60 37
M  V30 66 2 64 70
M  V30 67 2 65 94
M  V30 68 1 66 65
M  V30 69 1 67 68 CFG=1
M  V30 70 1 67 64
M  V30 71 2 69 15
M  V30 72 1 69 65
M  V30 73 1 70 69
M  V30 74 1 71 70
M  V30 75 1 72 67
M  V30 76 1 73 72
M  V30 77 1 74 72
M  V30 78 1 75 85
M  V30 79 1 75 72
M  V30 80 1 76 75
M  V30 81 2 77 83
M  V30 82 1 78 107
M  V30 83 1 79 78
M  V30 84 1 80 67
M  V30 85 1 80 81 CFG=1
M  V30 86 1 80 77
M  V30 87 1 82 128
M  V30 88 2 82 78
M  V30 89 1 83 82
M  V30 90 1 84 83
M  V30 91 1 85 80
M  V30 92 1 86 85
M  V30 93 1 87 85
M  V30 94 1 88 75
M  V30 95 2 89 95
M  V30 96 1 89 92
M  V30 97 1 90 91
M  V30 98 1 92 142
M  V30 99 1 92 93 CFG=1
M  V30 100 1 94 90
M  V30 101 1 94 95
M  V30 102 1 95 96
M  V30 103 1 97 99
M  V30 104 1 97 92
M  V30 105 1 97 100
M  V30 106 1 98 97
M  V30 107 1 100 101
M  V30 108 1 100 147
M  V30 109 2 102 108
M  V30 110 1 102 105
M  V30 111 1 103 104
M  V30 112 1 105 42
M  V30 113 1 105 106 CFG=1
M  V30 114 2 107 103
M  V30 115 1 107 108
M  V30 116 1 108 109
M  V30 117 1 110 112
M  V30 118 1 110 105
M  V30 119 1 110 50
M  V30 120 1 111 110
M  V30 121 2 114 120
M  V30 122 1 115 57
M  V30 123 1 115 116
M  V30 124 1 117 122
M  V30 125 1 117 114
M  V30 126 1 117 118 CFG=1
M  V30 127 2 119 115
M  V30 128 1 120 119
M  V30 129 1 120 121
M  V30 130 1 122 124
M  V30 131 1 123 122
M  V30 132 1 125 126
M  V30 133 1 125 122
M  V30 134 1 127 130
M  V30 135 2 128 132
M  V30 136 1 129 128
M  V30 137 1 130 131 CFG=3
M  V30 138 1 130 117
M  V30 139 1 132 133
M  V30 140 1 132 103
M  V30 141 2 133 127
M  V30 142 1 134 133
M  V30 143 1 135 130
M  V30 144 1 135 136
M  V30 145 1 135 125
M  V30 146 1 137 135
M  V30 147 1 138 125
M  V30 148 2 140 144
M  V30 149 1 140 119
M  V30 150 1 141 140
M  V30 151 1 142 143 CFG=3
M  V30 152 1 142 147
M  V30 153 1 142 139
M  V30 154 1 144 53
M  V30 155 2 145 139
M  V30 156 1 145 144
M  V30 157 1 146 145
M  V30 158 1 147 148
M  V30 159 1 149 147
M  V30 160 1 150 100
M  V30 END BOND
M  V30 END CTAB
M  END
