
     RDKit          3D

  0  0  0  0  0  0  0  0  0  0999 V3000
M  V30 BEGIN CTAB
M  V30 COUNTS 176 191 0 0 0
M  V30 BEGIN ATOM
M  V30 1 O 7.6944 5.1817 7.4151 0
M  V30 2 C 6.6978 8.838 -8.5778 0
M  V30 3 C 5.2504 5.0891 2.2632 0
M  V30 4 C 8.9592 8.8252 -4.218 0
M  V30 5 C 7.5751 6.9442 -0.9395 0
M  V30 6 C 4.9865 3.6437 1.745 0
M  V30 7 C 3.9471 5.8582 2.451 0
M  V30 8 C 6.2626 6.3016 4.2342 0
M  V30 9 H 6.0381 7.1022 3.7767 0
M  V30 10 C 6.1362 5.7306 1.1596 0
M  V30 11 C 6.3432 6.3447 -1.1743 0
M  V30 12 H 5.9805 6.3447 -2.053 0
M  V30 13 C 7.4449 8.9745 -7.619 0
M  V30 14 C 6.0576 2.826 1.431 0
M  V30 15 H 6.9367 3.1205 1.6403 0
M  V30 16 C -5.8877 8.7693 -0.4452 0
M  V30 17 C 8.3436 9.18 -6.5407 0
M  V30 18 C 8.2096 7.6374 -2.0115 0
M  V30 19 C 5.9667 5.0921 3.6265 0
M  V30 20 C 7.3864 6.2567 1.3637 0
M  V30 21 H 7.7714 6.2077 2.2298 0
M  V30 22 C -2.4056 8.4161 2.952 0
M  V30 23 C -3.1444 8.4007 1.7664 0
M  V30 24 H -2.7184 8.1374 0.9594 0
M  V30 25 C 6.8718 6.404 5.4798 0
M  V30 26 H 7.1062 7.2522 5.8398 0
M  V30 27 C -4.4831 8.7585 1.7383 0
M  V30 28 C 5.638 5.7484 -0.1484 0
M  V30 29 H 4.8004 5.341 -0.3334 0
M  V30 30 C 1.4446 7.1096 2.813 0
M  V30 31 C 8.1028 6.8573 0.3421 0
M  V30 32 H 8.9643 7.2133 0.5204 0
M  V30 33 C 8.0836 8.623 -5.2953 0
M  V30 34 H 7.3013 8.0966 -5.1711 0
M  V30 35 C 8.6202 8.2281 -2.9593 0
M  V30 36 C 5.8938 1.613 0.8316 0
M  V30 37 H 6.6585 1.0871 0.6322 0
M  V30 38 C -5.0895 9.1541 2.9329 0
M  V30 39 H -5.9997 9.4245 2.9331 0
M  V30 40 C -4.3753 9.1559 4.1121 0
M  V30 41 H -4.7972 9.4134 4.9231 0
M  V30 42 C 9.4875 9.9338 -6.7114 0
M  V30 43 H 9.6711 10.3301 -7.5554 0
M  V30 44 C -5.2254 8.7522 0.5206 0
M  V30 45 C -3.0564 8.7837 4.1161 0
M  V30 46 H -2.5777 8.78 4.9353 0
M  V30 47 C 3.0424 5.4613 3.4455 0
M  V30 48 H 3.2813 4.7465 4.0226 0
M  V30 49 C -1.0426 8.0374 2.9524 0
M  V30 50 C 4.6651 1.1371 0.5143 0
M  V30 51 C 7.1254 5.2428 6.1793 0
M  V30 52 C 0.1039 7.654 2.9209 0
M  V30 53 C 3.556 6.9799 1.7278 0
M  V30 54 H 4.1608 7.3448 1.0936 0
M  V30 55 C 4.47 -0.1426 -0.1342 0
M  V30 56 C 3.9769 -2.3908 -1.4025 0
M  V30 57 C 1.8207 6.0688 3.6151 0
M  V30 58 H 1.2313 5.7632 4.295 0
M  V30 59 C 10.0974 9.5671 -4.4088 0
M  V30 60 H 10.6977 9.706 -3.6852 0
M  V30 61 C 10.3769 10.1171 -5.6487 0
M  V30 62 H 11.1742 10.619 -5.7788 0
M  V30 63 C 8.0689 6.3818 8.0656 0
M  V30 64 H 8.6957 6.8781 7.4984 0
M  V30 65 H 8.4974 6.1706 8.9213 0
M  V30 66 H 7.2725 6.9281 8.2261 0
M  V30 67 C 3.3011 -4.7095 -2.7949 0
M  V30 68 H 3.0702 -5.5039 -3.2644 0
M  V30 69 C 2.3161 7.5948 1.8904 0
M  V30 70 H 2.082 8.3466 1.3578 0
M  V30 71 C 2.5694 -3.5242 -3.0104 0
M  V30 72 C 3.737 3.1853 1.3944 0
M  V30 73 H 2.9743 3.7261 1.5631 0
M  V30 74 C 3.579 1.9501 0.7988 0
M  V30 75 H 2.7056 1.6501 0.5793 0
M  V30 76 C 2.9407 -2.3686 -2.2888 0
M  V30 77 H 2.4594 -1.5612 -2.4229 0
M  V30 78 C 6.2434 3.9446 4.356 0
M  V30 79 H 6.0572 3.0927 3.9799 0
M  V30 80 C 6.7842 4.0279 5.6162 0
M  V30 81 H 6.9271 3.2316 6.1142 0
M  V30 82 C 4.2868 -1.1834 -0.6952 0
M  V30 83 C 4.3491 -4.715 -1.9066 0
M  V30 84 H 4.842 -5.5132 -1.7623 0
M  V30 85 C 0.5341 -3.4279 -4.667 0
M  V30 86 C 1.4424 -3.4816 -3.921 0
M  V30 87 C 4.6907 -3.5594 -1.2216 0
M  V30 88 H 5.424 -3.5724 -0.6179 0
M  V30 89 O -7.6944 5.1817 -17.5784 0
M  V30 90 C -6.6978 8.838 -1.5855 0
M  V30 91 C -5.2504 5.0891 -12.4264 0
M  V30 92 C -8.9592 8.8252 -5.9453 0
M  V30 93 C -7.5751 6.9442 -9.2238 0
M  V30 94 C -4.9865 3.6437 -11.9083 0
M  V30 95 C -3.9471 5.8582 -12.6142 0
M  V30 96 C -6.2626 6.3016 -14.3975 0
M  V30 97 H -6.0381 7.1022 -13.9399 0
M  V30 98 C -6.1362 5.7306 -11.3229 0
M  V30 99 C -6.3432 6.3447 -8.989 0
M  V30 100 H -5.9805 6.3447 -8.1103 0
M  V30 101 C -7.4449 8.9745 -2.5443 0
M  V30 102 C -6.0576 2.826 -11.5942 0
M  V30 103 H -6.9367 3.1205 -11.8036 0
M  V30 104 C 5.8877 8.7693 -9.7181 0
M  V30 105 C -8.3436 9.18 -3.6226 0
M  V30 106 C -8.2096 7.6374 -8.1517 0
M  V30 107 C -5.9667 5.0921 -13.7897 0
M  V30 108 C -7.3864 6.2567 -11.527 0
M  V30 109 H -7.7714 6.2077 -12.3931 0
M  V30 110 C 2.4056 8.4161 -13.1153 0
M  V30 111 C 3.1444 8.4007 -11.9296 0
M  V30 112 H 2.7184 8.1374 -11.1227 0
M  V30 113 C -6.8718 6.404 -15.6431 0
M  V30 114 H -7.1062 7.2522 -16.0031 0
M  V30 115 C 4.4831 8.7585 -11.9016 0
M  V30 116 C -5.638 5.7484 -10.0149 0
M  V30 117 H -4.8004 5.341 -9.8299 0
M  V30 118 C -1.4446 7.1096 -12.9762 0
M  V30 119 C -8.1028 6.8573 -10.5053 0
M  V30 120 H -8.9643 7.2133 -10.6836 0
M  V30 121 C -8.0836 8.623 -4.868 0
M  V30 122 H -7.3013 8.0966 -4.9922 0
M  V30 123 C -8.6202 8.2281 -7.2039 0
M  V30 124 C -5.8938 1.613 -10.9948 0
M  V30 125 H -6.6585 1.0871 -10.7954 0
M  V30 126 C 5.0895 9.1541 -13.0962 0
M  V30 127 H 5.9997 9.4245 -13.0964 0
M  V30 128 C 4.3753 9.1559 -14.2753 0
M  V30 129 H 4.7972 9.4134 -15.0863 0
M  V30 130 C -9.4875 9.9338 -3.4518 0
M  V30 131 H -9.6711 10.3301 -2.6079 0
M  V30 132 C 5.2254 8.7522 -10.6838 0
M  V30 133 C 3.0564 8.7837 -14.2794 0
M  V30 134 H 2.5777 8.78 -15.0985 0
M  V30 135 C -3.0424 5.4613 -13.6088 0
M  V30 136 H -3.2813 4.7465 -14.1859 0
M  V30 137 C 1.0426 8.0374 -13.1157 0
M  V30 138 C -4.6651 1.1371 -10.6775 0
M  V30 139 C -7.1254 5.2428 -16.3425 0
M  V30 140 C -0.1039 7.654 -13.0842 0
M  V30 141 C -3.556 6.9799 -11.891 0
M  V30 142 H -4.1608 7.3448 -11.2568 0
M  V30 143 C -4.47 -0.1426 -10.0291 0
M  V30 144 C -3.9769 -2.3908 -8.7607 0
M  V30 145 C -1.8207 6.0688 -13.7783 0
M  V30 146 H -1.2313 5.7632 -14.4582 0
M  V30 147 C -10.0974 9.5671 -5.7544 0
M  V30 148 H -10.6977 9.706 -6.4781 0
M  V30 149 C -10.3769 10.1171 -4.5145 0
M  V30 150 H -11.1742 10.619 -4.3844 0
M  V30 151 C -8.0689 6.3818 -18.2288 0
M  V30 152 H -8.6957 6.8781 -17.6617 0
M  V30 153 H -8.4974 6.1706 -19.0846 0
M  V30 154 H -7.2725 6.9281 -18.3894 0
M  V30 155 C -3.3011 -4.7095 -7.3684 0
M  V30 156 H -3.0702 -5.5039 -6.8988 0
M  V30 157 C -2.3161 7.5948 -12.0536 0
M  V30 158 H -2.082 8.3467 -11.5211 0
M  V30 159 C -2.5694 -3.5242 -7.1529 0
M  V30 160 C -3.737 3.1853 -11.5576 0
M  V30 161 H -2.9743 3.7261 -11.7264 0
M  V30 162 C -3.579 1.9501 -10.9621 0
M  V30 163 H -2.7056 1.6501 -10.7426 0
M  V30 164 C -2.9407 -2.3686 -7.8745 0
M  V30 165 H -2.4594 -1.5612 -7.7403 0
M  V30 166 C -6.2434 3.9446 -14.5192 0
M  V30 167 H -6.0572 3.0927 -14.1432 0
M  V30 168 C -6.7842 4.0279 -15.7795 0
M  V30 169 H -6.9271 3.2316 -16.2775 0
M  V30 170 C -4.2868 -1.1834 -9.4681 0
M  V30 171 C -4.3491 -4.715 -8.2566 0
M  V30 172 H -4.842 -5.5132 -8.4009 0
M  V30 173 C -0.5341 -3.4279 -5.4963 0
M  V30 174 C -1.4424 -3.4816 -6.2423 0
M  V30 175 C -4.6907 -3.5594 -8.9416 0
M  V30 176 H -5.424 -3.5724 -9.5453 0
M  V30 END ATOM
M  V30 BEGIN BOND
M  V30 1 1 1 63
M  V30 2 3 2 13
M  V30 3 1 3 7
M  V30 4 1 3 19
M  V30 5 1 4 35
M  V30 6 2 5 31
M  V30 7 1 6 3
M  V30 8 2 7 47
M  V30 9 2 8 25
M  V30 10 1 9 8
M  V30 11 2 10 20
M  V30 12 1 10 3
M  V30 13 1 11 5
M  V30 14 2 11 28
M  V30 15 1 12 11
M  V30 16 1 13 17
M  V30 17 1 14 15
M  V30 18 2 14 6
M  V30 19 3 16 44
M  V30 20 1 17 33
M  V30 21 1 18 5
M  V30 22 1 19 8
M  V30 23 2 19 78
M  V30 24 1 20 21
M  V30 25 1 22 49
M  V30 26 2 22 45
M  V30 27 1 23 22
M  V30 28 1 24 23
M  V30 29 1 25 26
M  V30 30 1 25 51
M  V30 31 2 27 23
M  V30 32 1 27 38
M  V30 33 1 28 10
M  V30 34 1 29 28
M  V30 35 1 30 52
M  V30 36 2 30 57
M  V30 37 1 31 32
M  V30 38 1 31 20
M  V30 39 1 33 34
M  V30 40 2 33 4
M  V30 41 3 35 18
M  V30 42 1 36 14
M  V30 43 1 37 36
M  V30 44 1 38 39
M  V30 45 2 38 40
M  V30 46 1 40 45
M  V30 47 1 40 41
M  V30 48 2 42 17
M  V30 49 1 42 61
M  V30 50 1 43 42
M  V30 51 1 44 27
M  V30 52 1 45 46
M  V30 53 1 47 57
M  V30 54 1 47 48
M  V30 55 1 50 74
M  V30 56 2 50 36
M  V30 57 1 51 1
M  V30 58 3 52 49
M  V30 59 2 53 69
M  V30 60 1 53 7
M  V30 61 1 54 53
M  V30 62 1 55 50
M  V30 63 2 56 87
M  V30 64 1 56 82
M  V30 65 1 57 58
M  V30 66 1 59 4
M  V30 67 1 59 60
M  V30 68 2 61 59
M  V30 69 1 62 61
M  V30 70 1 63 66
M  V30 71 1 63 65
M  V30 72 1 64 63
M  V30 73 2 67 83
M  V30 74 1 68 67
M  V30 75 1 69 30
M  V30 76 1 70 69
M  V30 77 1 71 67
M  V30 78 2 71 76
M  V30 79 1 72 73
M  V30 80 1 72 6
M  V30 81 2 74 72
M  V30 82 1 75 74
M  V30 83 1 76 56
M  V30 84 1 77 76
M  V30 85 1 78 80
M  V30 86 1 79 78
M  V30 87 1 80 81
M  V30 88 2 80 51
M  V30 89 3 82 55
M  V30 90 1 83 84
M  V30 91 1 83 87
M  V30 92 3 85 86
M  V30 93 1 86 71
M  V30 94 1 87 88
M  V30 95 1 89 139
M  V30 96 1 90 16
M  V30 97 1 91 94
M  V30 98 1 91 98
M  V30 99 2 92 147
M  V30 100 1 92 121
M  V30 101 1 93 99
M  V30 102 1 93 106
M  V30 103 2 94 102
M  V30 104 1 94 160
M  V30 105 1 95 91
M  V30 106 2 95 141
M  V30 107 1 96 97
M  V30 108 2 96 107
M  V30 109 1 98 116
M  V30 110 1 99 100
M  V30 111 3 101 90
M  V30 112 1 102 124
M  V30 113 1 103 102
M  V30 114 1 104 2
M  V30 115 1 105 130
M  V30 116 1 105 101
M  V30 117 3 106 123
M  V30 118 1 107 91
M  V30 119 2 108 98
M  V30 120 1 108 119
M  V30 121 1 109 108
M  V30 122 1 110 111
M  V30 123 2 111 115
M  V30 124 1 111 112
M  V30 125 1 113 96
M  V30 126 1 114 113
M  V30 127 1 115 132
M  V30 128 1 116 117
M  V30 129 2 116 99
M  V30 130 2 118 157
M  V30 131 2 119 93
M  V30 132 1 120 119
M  V30 133 2 121 105
M  V30 134 1 122 121
M  V30 135 1 123 92
M  V30 136 1 124 125
M  V30 137 2 124 138
M  V30 138 1 126 115
M  V30 139 1 127 126
M  V30 140 2 128 126
M  V30 141 1 129 128
M  V30 142 1 130 131
M  V30 143 3 132 104
M  V30 144 1 133 128
M  V30 145 2 133 110
M  V30 146 1 134 133
M  V30 147 1 135 95
M  V30 148 1 136 135
M  V30 149 1 137 110
M  V30 150 3 137 140
M  V30 151 1 138 143
M  V30 152 1 139 168
M  V30 153 2 139 113
M  V30 154 1 140 118
M  V30 155 1 141 142
M  V30 156 3 143 170
M  V30 157 2 144 164
M  V30 158 2 145 135
M  V30 159 1 145 118
M  V30 160 1 146 145
M  V30 161 1 147 149
M  V30 162 1 148 147
M  V30 163 1 149 150
M  V30 164 2 149 130
M  V30 165 1 151 152
M  V30 166 1 151 89
M  V30 167 1 153 151
M  V30 168 1 154 151
M  V30 169 2 155 159
M  V30 170 1 155 156
M  V30 171 1 157 141
M  V30 172 1 157 158
M  V30 173 1 159 174
M  V30 174 2 160 162
M  V30 175 1 161 160
M  V30 176 1 162 163
M  V30 177 1 162 138
M  V30 178 1 164 165
M  V30 179 1 164 159
M  V30 180 1 166 167
M  V30 181 1 166 107
M  V30 182 2 168 166
M  V30 183 1 169 168
M  V30 184 1 170 144
M  V30 185 1 171 155
M  V30 186 1 172 171
M  V30 187 1 173 85
M  V30 188 3 174 173
M  V30 189 1 175 144
M  V30 190 2 175 171
M  V30 191 1 176 175
M  V30 END BOND
M  V30 END CTAB
M  END
