
     RDKit          3D

  0  0  0  0  0  0  0  0  0  0999 V3000
M  V30 BEGIN CTAB
M  V30 COUNTS 244 272 0 0 0
M  V30 BEGIN ATOM
M  V30 1 O 14.9322 9.8856 8.3566 0
M  V30 2 H 15.0946 9.1813 8.7851 0
M  V30 3 C 13.8345 10.4757 8.8647 0
M  V30 4 C 13.1227 9.9094 9.9389 0
M  V30 5 C 12.0027 10.5748 10.4458 0
M  V30 6 H 11.5347 10.1913 11.1771 0
M  V30 7 C 11.549 11.7822 9.9155 0
M  V30 8 C 12.2517 12.3125 8.8394 0
M  V30 9 H 11.9565 13.131 8.4585 0
M  V30 10 C 13.3755 11.6843 8.2989 0
M  V30 11 C 10.3766 12.5089 10.5131 0
M  V30 12 H 9.8676 11.895 11.0841 0
M  V30 13 H 9.7973 12.8419 9.7951 0
M  V30 14 H 10.6976 13.2635 11.0495 0
M  V30 15 C 13.5226 8.6312 10.5099 0
M  V30 16 H 13.0101 8.2584 11.2182 0
M  V30 17 C 14.1327 12.2703 7.187 0
M  V30 18 H 14.9358 11.8493 6.9035 0
M  V30 19 N 14.5496 7.9964 10.0777 0
M  V30 20 N 13.7446 13.3304 6.5903 0
M  V30 21 O 22.3652 1.129 8.4821 0
M  V30 22 H 21.5653 1.2343 8.7137 0
M  V30 23 C 22.8123 -0.0547 8.9395 0
M  V30 24 C 24.1199 -0.451 8.6374 0
M  V30 25 C 24.5865 -1.6881 9.0993 0
M  V30 26 H 25.472 -1.9552 8.8824 0
M  V30 27 C 23.797 -2.5335 9.8639 0
M  V30 28 C 22.5106 -2.1158 10.179 0
M  V30 29 H 21.9652 -2.6731 10.7207 0
M  V30 30 C 21.9936 -0.9009 9.7233 0
M  V30 31 C 24.3269 -3.8578 10.374 0
M  V30 32 H 23.8797 -4.0859 11.216 0
M  V30 33 H 25.2915 -3.7857 10.5261 0
M  V30 34 H 24.1525 -4.5569 9.7107 0
M  V30 35 C 24.9789 0.4954 7.9247 0
M  V30 36 H 24.6163 1.3329 7.6626 0
M  V30 37 C 20.6745 -0.4787 10.1221 0
M  V30 38 H 20.1389 -1.0624 10.6472 0
M  V30 39 N 26.2074 0.2367 7.6395 0
M  V30 40 N 20.2029 0.6751 9.7819 0
M  V30 41 O 23.2886 10.4313 4.2825 0
M  V30 42 H 22.6321 10.8535 3.9751 0
M  V30 43 C 23.8768 11.1574 5.247 0
M  V30 44 C 23.3829 12.4268 5.6231 0
M  V30 45 C 24.0265 13.1405 6.6381 0
M  V30 46 H 23.6847 13.9903 6.8905 0
M  V30 47 C 25.1412 12.6521 7.2843 0
M  V30 48 C 25.6223 11.4024 6.8907 0
M  V30 49 H 26.3964 11.0546 7.3187 0
M  V30 50 C 25.0127 10.6479 5.8963 0
M  V30 51 C 25.8601 13.4561 8.3439 0
M  V30 52 H 25.42 14.3243 8.4498 0
M  V30 53 H 26.7918 13.5933 8.0735 0
M  V30 54 H 25.8359 12.9717 9.196 0
M  V30 55 C 22.2388 13.0354 4.9737 0
M  V30 56 H 21.9445 13.8839 5.2793 0
M  V30 57 C 25.6076 9.365 5.4938 0
M  V30 58 H 25.2875 8.9151 4.7191 0
M  V30 59 N 21.6025 12.4802 4.0015 0
M  V30 60 N 26.5438 8.8576 6.1779 0
M  V30 61 O 15.5689 8.8427 -2.9238 0
M  V30 62 H 15.7487 8.0762 -3.2203 0
M  V30 63 C 14.438 9.2917 -3.4989 0
M  V30 64 C 13.7321 8.5188 -4.4546 0
M  V30 65 C 12.5681 9.0255 -5.0163 0
M  V30 66 H 12.1009 8.5039 -5.6577 0
M  V30 67 C 12.0641 10.2829 -4.6648 0
M  V30 68 C 12.7714 11.0233 -3.7351 0
M  V30 69 H 12.4467 11.8823 -3.4928 0
M  V30 70 C 13.9424 10.5547 -3.1418 0
M  V30 71 C 10.7846 10.7931 -5.3074 0
M  V30 72 H 10.8815 10.7815 -6.2828 0
M  V30 73 H 10.6115 11.7087 -5.0068 0
M  V30 74 H 10.0358 10.2173 -5.0478 0
M  V30 75 C 14.2109 7.2139 -4.8495 0
M  V30 76 H 13.6978 6.7005 -5.4609 0
M  V30 77 C 14.702 11.3598 -2.1762 0
M  V30 78 H 15.4934 10.9958 -1.7951 0
M  V30 79 N 15.3165 6.7252 -4.3949 0
M  V30 80 N 14.337 12.525 -1.834 0
M  V30 81 O 24.6857 2.4868 -1.6162 0
M  V30 82 H 25.2086 2.6682 -0.984 0
M  V30 83 C 25.3726 2.4711 -2.7776 0
M  V30 84 C 24.6842 2.1981 -3.973 0
M  V30 85 C 25.4035 2.1554 -5.1722 0
M  V30 86 H 24.9413 1.9589 -5.9778 0
M  V30 87 C 26.7747 2.3904 -5.2232 0
M  V30 88 C 27.4386 2.6889 -4.0387 0
M  V30 89 H 28.3725 2.8649 -4.0595 0
M  V30 90 C 26.7542 2.7356 -2.8131 0
M  V30 91 C 27.5381 2.286 -6.5202 0
M  V30 92 H 28.1573 3.0411 -6.5964 0
M  V30 93 H 26.9094 2.3007 -7.2712 0
M  V30 94 H 28.0432 1.4459 -6.5358 0
M  V30 95 C 23.2398 1.9632 -3.9351 0
M  V30 96 H 22.7851 1.972 -3.1014 0
M  V30 97 C 27.4963 3.0406 -1.595 0
M  V30 98 H 28.4139 3.2758 -1.6523 0
M  V30 99 N 22.581 1.7466 -5.0068 0
M  V30 100 N 26.9246 2.9947 -0.4496 0
M  V30 101 O 14.7785 0.8998 2.674 0
M  V30 102 H 15.1093 0.8374 1.9054 0
M  V30 103 C 13.4461 0.6969 2.6085 0
M  V30 104 C 12.6892 0.7559 3.7874 0
M  V30 105 C 11.3177 0.519 3.7217 0
M  V30 106 H 10.8109 0.5514 4.5245 0
M  V30 107 C 10.6592 0.2378 2.5332 0
M  V30 108 C 11.4214 0.2082 1.3703 0
M  V30 109 H 10.9918 0.0311 0.5407 0
M  V30 110 C 12.8001 0.4304 1.3868 0
M  V30 111 C 9.1794 -0.0337 2.5315 0
M  V30 112 H 8.6927 0.8016 2.3704 0
M  V30 113 H 8.9151 -0.4034 3.3998 0
M  V30 114 H 8.9653 -0.6765 1.8232 0
M  V30 115 C 13.3305 1.0257 5.0801 0
M  V30 116 H 14.271 1.1494 5.1257 0
M  V30 117 C 13.5401 0.3724 0.1397 0
M  V30 118 H 13.0609 0.2004 -0.664 0
M  V30 119 N 12.6292 1.0938 6.1398 0
M  V30 120 N 14.8153 0.5443 0.0703 0
M  V30 121 C 17.0018 2.471 9.8206 0
M  V30 122 C 18.27 2.0505 9.4464 0
M  V30 123 H 18.6728 2.3816 8.6531 0
M  V30 124 C 18.9461 1.1342 10.2538 0
M  V30 125 C 18.3973 0.7184 11.4701 0
M  V30 126 H 18.892 0.1479 12.0465 0
M  V30 127 C 17.1293 1.1433 11.8311 0
M  V30 128 H 16.75 0.8535 12.6521 0
M  V30 129 C 16.4124 1.9873 10.9995 0
M  V30 130 C 14.9751 2.4502 11.1758 0
M  V30 131 H 14.5452 2.0894 12.0032 0
M  V30 132 C 14.2646 2.0143 9.8926 0
M  V30 133 C 13.1333 1.2329 9.7903 0
M  V30 134 H 12.7104 0.895 10.5715 0
M  V30 135 C 12.6197 0.9436 8.531 0
M  V30 136 H 11.8305 0.4183 8.4585 0
M  V30 137 C 13.2422 1.4112 7.37 0
M  V30 138 C 14.3779 2.2245 7.4803 0
M  V30 139 H 14.8005 2.5683 6.7023 0
M  V30 140 C 14.8709 2.5176 8.7314 0
M  V30 141 C 16.08 3.3909 9.0193 0
M  V30 142 H 16.5088 3.7547 8.1925 0
M  V30 143 C 15.5577 4.4769 9.9514 0
M  V30 144 C 15.4823 5.8275 9.6597 0
M  V30 145 H 15.8863 6.1748 8.8716 0
M  V30 146 C 14.8028 6.6749 10.5408 0
M  V30 147 C 14.3379 6.1862 11.764 0
M  V30 148 H 13.9642 6.7824 12.4012 0
M  V30 149 C 14.4211 4.8296 12.0513 0
M  V30 150 H 14.0935 4.4936 12.877 0
M  V30 151 C 14.9849 3.9693 11.1224 0
M  V30 152 C 27.396 3.7962 3.0847 0
M  V30 153 C 26.815 3.5222 1.8747 0
M  V30 154 H 25.8696 3.5108 1.7951 0
M  V30 155 C 27.6159 3.2601 0.7567 0
M  V30 156 C 29.0026 3.2463 0.8911 0
M  V30 157 H 29.5501 3.0545 0.1384 0
M  V30 158 C 29.588 3.5132 2.1312 0
M  V30 159 H 30.5331 3.5104 2.219 0
M  V30 160 C 28.7939 3.7823 3.2283 0
M  V30 161 C 29.2483 4.0543 4.6521 0
M  V30 162 H 30.2437 4.0385 4.7559 0
M  V30 163 C 28.5422 3.0194 5.5193 0
M  V30 164 C 29.1247 2.1059 6.3747 0
M  V30 165 H 30.0671 2.0979 6.4926 0
M  V30 166 C 28.3278 1.1981 7.0624 0
M  V30 167 H 28.7344 0.5625 7.641 0
M  V30 168 C 26.9367 1.2049 6.9156 0
M  V30 169 C 26.3491 2.1336 6.039 0
M  V30 170 H 25.4081 2.139 5.9086 0
M  V30 171 C 27.1466 3.0356 5.3707 0
M  V30 172 C 26.6581 4.1021 4.3889 0
M  V30 173 H 25.6644 4.1175 4.2866 0
M  V30 174 C 27.2334 5.4222 4.9023 0
M  V30 175 C 26.5114 6.5514 5.2384 0
M  V30 176 H 25.5691 6.5723 5.1192 0
M  V30 177 C 27.1849 7.6641 5.7581 0
M  V30 178 C 28.5712 7.611 5.9359 0
M  V30 179 H 29.0229 8.3543 6.3195 0
M  V30 180 C 29.2947 6.49 5.5589 0
M  V30 181 H 30.2408 6.4744 5.6513 0
M  V30 182 C 28.6243 5.3932 5.0474 0
M  V30 183 C 15.9873 13.543 3.6302 0
M  V30 184 C 15.2143 12.9862 4.6317 0
M  V30 185 H 15.1336 12.0425 4.704 0
M  V30 186 C 14.5501 13.82 5.5397 0
M  V30 187 C 14.6616 15.2063 5.4051 0
M  V30 188 H 14.186 15.7753 5.9995 0
M  V30 189 C 15.4601 15.7619 4.4105 0
M  V30 190 H 15.5619 16.7057 4.3514 0
M  V30 191 C 16.1052 14.9385 3.5104 0
M  V30 192 C 16.9845 15.3684 2.3397 0
M  V30 193 H 17.056 16.3623 2.2493 0
M  V30 194 C 16.3848 14.7022 1.1171 0
M  V30 195 C 15.8626 15.343 0.0017 0
M  V30 196 H 15.9559 16.2837 -0.0973 0
M  V30 197 C 15.2021 14.5965 -0.9704 0
M  V30 198 H 14.823 15.0341 -1.7237 0
M  V30 199 C 15.0905 13.2131 -0.8487 0
M  V30 200 C 15.6328 12.5596 0.2755 0
M  V30 201 H 15.5607 11.6176 0.3655 0
M  V30 202 C 16.2715 13.3134 1.246 0
M  V30 203 C 16.7988 12.7868 2.5828 0
M  V30 204 H 16.7266 11.7942 2.671 0
M  V30 205 C 18.2334 13.3053 2.7556 0
M  V30 206 C 19.3318 12.5678 3.1574 0
M  V30 207 H 19.2725 11.6223 3.2355 0
M  V30 208 C 20.5221 13.2223 3.4455 0
M  V30 209 C 20.638 14.6068 3.2136 0
M  V30 210 H 21.4733 15.0415 3.3436 0
M  V30 211 C 19.5351 15.337 2.7964 0
M  V30 212 H 19.6096 16.2723 2.6407 0
M  V30 213 C 18.328 14.6961 2.6089 0
M  V30 214 C 17.0374 3.5159 -4.0986 0
M  V30 215 C 16.6663 4.8198 -3.8869 0
M  V30 216 H 17.0252 5.3049 -3.1533 0
M  V30 217 C 15.7581 5.4315 -4.7552 0
M  V30 218 C 15.3109 4.7364 -5.8931 0
M  V30 219 H 14.7524 5.1735 -6.525 0
M  V30 220 C 15.6847 3.4109 -6.0935 0
M  V30 221 H 15.3735 2.9403 -6.8581 0
M  V30 222 C 16.5059 2.7834 -5.1813 0
M  V30 223 C 16.9009 1.3036 -5.1458 0
M  V30 224 H 16.5079 0.7789 -5.9 0
M  V30 225 C 18.4133 1.2784 -5.1393 0
M  V30 226 C 19.2259 0.6819 -6.086 0
M  V30 227 H 18.8498 0.1625 -6.7867 0
M  V30 228 C 20.606 0.8543 -5.993 0
M  V30 229 H 21.1687 0.4648 -6.6526 0
M  V30 230 C 21.1738 1.5811 -4.9605 0
M  V30 231 C 20.3445 2.1767 -3.9957 0
M  V30 232 H 20.7198 2.681 -3.2852 0
M  V30 233 C 18.9693 2.0191 -4.0939 0
M  V30 234 C 17.9165 2.672 -3.1803 0
M  V30 235 H 18.3157 3.1926 -2.4266 0
M  V30 236 C 16.9527 1.5858 -2.7197 0
M  V30 237 C 16.4607 1.4367 -1.4434 0
M  V30 238 H 16.8181 1.9487 -0.7288 0
M  V30 239 C 15.428 0.5231 -1.2092 0
M  V30 240 C 14.9908 -0.3196 -2.2315 0
M  V30 241 H 14.349 -0.9952 -2.0503 0
M  V30 242 C 15.5021 -0.1648 -3.5207 0
M  V30 243 H 15.2116 -0.7403 -4.2195 0
M  V30 244 C 16.4276 0.8216 -3.78 0
M  V30 END ATOM
M  V30 BEGIN BOND
M  V30 1 1 1 2
M  V30 2 1 1 3
M  V30 3 2 3 4
M  V30 4 1 4 5
M  V30 5 1 4 15
M  V30 6 1 5 6
M  V30 7 2 7 5
M  V30 8 1 7 11
M  V30 9 1 8 7
M  V30 10 1 9 8
M  V30 11 2 10 8
M  V30 12 1 10 3
M  V30 13 1 11 14
M  V30 14 1 11 12
M  V30 15 1 13 11
M  V30 16 1 15 16
M  V30 17 1 17 10
M  V30 18 1 18 17
M  V30 19 2 19 15
M  V30 20 1 19 146
M  V30 21 2 20 17
M  V30 22 1 21 22
M  V30 23 1 21 23
M  V30 24 2 23 30
M  V30 25 1 24 23
M  V30 26 2 24 25
M  V30 27 1 25 27
M  V30 28 1 26 25
M  V30 29 2 27 28
M  V30 30 1 27 31
M  V30 31 1 28 29
M  V30 32 1 30 37
M  V30 33 1 30 28
M  V30 34 1 31 33
M  V30 35 1 31 32
M  V30 36 1 34 31
M  V30 37 1 35 24
M  V30 38 1 36 35
M  V30 39 1 37 38
M  V30 40 2 39 35
M  V30 41 2 40 37
M  V30 42 1 40 124
M  V30 43 1 41 43
M  V30 44 1 42 41
M  V30 45 1 43 44
M  V30 46 2 43 50
M  V30 47 2 44 45
M  V30 48 1 45 46
M  V30 49 1 45 47
M  V30 50 1 47 51
M  V30 51 2 48 47
M  V30 52 1 48 49
M  V30 53 1 50 48
M  V30 54 1 51 52
M  V30 55 1 51 54
M  V30 56 1 53 51
M  V30 57 1 55 56
M  V30 58 1 55 44
M  V30 59 1 57 50
M  V30 60 2 57 60
M  V30 61 1 58 57
M  V30 62 2 59 55
M  V30 63 1 62 61
M  V30 64 2 63 70
M  V30 65 1 63 61
M  V30 66 1 64 63
M  V30 67 1 65 67
M  V30 68 2 65 64
M  V30 69 1 66 65
M  V30 70 2 67 68
M  V30 71 1 68 69
M  V30 72 1 68 70
M  V30 73 1 70 77
M  V30 74 1 71 74
M  V30 75 1 71 73
M  V30 76 1 71 67
M  V30 77 1 72 71
M  V30 78 1 75 64
M  V30 79 2 75 79
M  V30 80 1 76 75
M  V30 81 2 77 80
M  V30 82 1 77 78
M  V30 83 1 80 199
M  V30 84 1 81 82
M  V30 85 1 83 81
M  V30 86 1 84 95
M  V30 87 2 84 83
M  V30 88 1 85 84
M  V30 89 1 86 85
M  V30 90 2 87 85
M  V30 91 1 87 88
M  V30 92 2 88 90
M  V30 93 1 89 88
M  V30 94 1 90 83
M  V30 95 1 90 97
M  V30 96 1 91 87
M  V30 97 1 92 91
M  V30 98 1 93 91
M  V30 99 1 94 91
M  V30 100 1 95 96
M  V30 101 2 97 100
M  V30 102 1 98 97
M  V30 103 1 99 230
M  V30 104 2 99 95
M  V30 105 1 100 155
M  V30 106 1 102 101
M  V30 107 1 103 101
M  V30 108 2 103 104
M  V30 109 1 104 115
M  V30 110 1 105 104
M  V30 111 1 105 106
M  V30 112 2 107 105
M  V30 113 2 108 110
M  V30 114 1 108 107
M  V30 115 1 109 108
M  V30 116 1 110 103
M  V30 117 1 111 107
M  V30 118 1 111 113
M  V30 119 1 112 111
M  V30 120 1 114 111
M  V30 121 1 115 116
M  V30 122 2 115 119
M  V30 123 1 117 110
M  V30 124 1 118 117
M  V30 125 1 119 137
M  V30 126 2 120 117
M  V30 127 2 121 129
M  V30 128 1 122 121
M  V30 129 2 122 124
M  V30 130 1 123 122
M  V30 131 1 124 125
M  V30 132 2 125 127
M  V30 133 1 125 126
M  V30 134 1 127 128
M  V30 135 1 129 130
M  V30 136 1 129 127
M  V30 137 1 130 131
M  V30 138 1 132 130
M  V30 139 1 133 132
M  V30 140 1 133 134
M  V30 141 2 135 133
M  V30 142 1 136 135
M  V30 143 2 137 138
M  V30 144 1 137 135
M  V30 145 1 138 140
M  V30 146 1 139 138
M  V30 147 1 140 141
M  V30 148 2 140 132
M  V30 149 1 141 142
M  V30 150 1 141 121
M  V30 151 1 141 143
M  V30 152 2 143 151
M  V30 153 1 144 143
M  V30 154 2 144 146
M  V30 155 1 145 144
M  V30 156 1 146 147
M  V30 157 2 147 149
M  V30 158 1 147 148
M  V30 159 1 149 150
M  V30 160 1 151 130
M  V30 161 1 151 149
M  V30 162 1 152 160
M  V30 163 1 152 172
M  V30 164 2 153 152
M  V30 165 1 154 153
M  V30 166 2 155 156
M  V30 167 1 155 153
M  V30 168 1 156 158
M  V30 169 1 157 156
M  V30 170 1 158 159
M  V30 171 2 158 160
M  V30 172 1 160 161
M  V30 173 1 161 162
M  V30 174 1 161 182
M  V30 175 1 161 163
M  V30 176 2 163 164
M  V30 177 1 164 165
M  V30 178 1 164 166
M  V30 179 1 166 167
M  V30 180 2 168 166
M  V30 181 1 168 39
M  V30 182 1 169 168
M  V30 183 1 170 169
M  V30 184 1 171 163
M  V30 185 2 171 169
M  V30 186 1 172 173
M  V30 187 1 172 174
M  V30 188 1 172 171
M  V30 189 2 174 182
M  V30 190 1 174 175
M  V30 191 2 175 177
M  V30 192 1 176 175
M  V30 193 1 177 178
M  V30 194 1 177 60
M  V30 195 1 178 179
M  V30 196 1 180 181
M  V30 197 2 180 178
M  V30 198 1 182 180
M  V30 199 2 183 184
M  V30 200 1 184 185
M  V30 201 1 184 186
M  V30 202 1 186 20
M  V30 203 2 187 186
M  V30 204 1 187 188
M  V30 205 1 189 187
M  V30 206 1 190 189
M  V30 207 1 191 183
M  V30 208 2 191 189
M  V30 209 1 192 193
M  V30 210 1 192 213
M  V30 211 1 192 191
M  V30 212 1 194 202
M  V30 213 1 194 192
M  V30 214 2 195 194
M  V30 215 1 196 195
M  V30 216 2 197 199
M  V30 217 1 197 195
M  V30 218 1 198 197
M  V30 219 1 199 200
M  V30 220 1 200 201
M  V30 221 2 200 202
M  V30 222 1 202 203
M  V30 223 1 203 204
M  V30 224 1 203 205
M  V30 225 1 203 183
M  V30 226 2 205 206
M  V30 227 1 206 207
M  V30 228 1 206 208
M  V30 229 1 208 59
M  V30 230 1 209 210
M  V30 231 2 209 208
M  V30 232 1 211 209
M  V30 233 1 212 211
M  V30 234 1 213 205
M  V30 235 2 213 211
M  V30 236 1 214 215
M  V30 237 1 214 234
M  V30 238 1 215 216
M  V30 239 1 217 79
M  V30 240 2 217 215
M  V30 241 1 218 217
M  V30 242 1 219 218
M  V30 243 2 220 218
M  V30 244 1 220 222
M  V30 245 1 221 220
M  V30 246 1 222 223
M  V30 247 2 222 214
M  V30 248 1 223 224
M  V30 249 1 223 225
M  V30 250 1 223 244
M  V30 251 2 225 233
M  V30 252 2 226 228
M  V30 253 1 226 225
M  V30 254 1 227 226
M  V30 255 1 228 230
M  V30 256 1 229 228
M  V30 257 2 230 231
M  V30 258 1 231 232
M  V30 259 1 233 231
M  V30 260 1 233 234
M  V30 261 1 234 236
M  V30 262 1 234 235
M  V30 263 2 236 237
M  V30 264 1 237 239
M  V30 265 1 237 238
M  V30 266 1 239 120
M  V30 267 1 240 241
M  V30 268 2 240 239
M  V30 269 1 242 240
M  V30 270 1 243 242
M  V30 271 2 244 242
M  V30 272 1 244 236
M  V30 END BOND
M  V30 END CTAB
M  END
