
     RDKit          3D

  0  0  0  0  0  0  0  0  0  0999 V3000
M  V30 BEGIN CTAB
M  V30 COUNTS 120 132 0 0 1
M  V30 BEGIN ATOM
M  V30 1 N 13.4207 10.673 8.8242 0
M  V30 2 N 14.6109 5.8895 9.3021 0
M  V30 3 N 13.4207 3.8615 9.073 0
M  V30 4 N 18.1545 2.4232 8.7559 0
M  V30 5 C 12.2344 12.2101 6.1926 0
M  V30 6 H 11.413 12.2116 6.6528 0
M  V30 7 C 13.4207 12.2086 6.9149 0
M  V30 8 C 13.4207 12.1233 8.3947 0
M  V30 9 H 12.6262 12.5723 8.7515 0
M  V30 10 C 14.5776 10.0384 8.9629 0
M  V30 11 H 15.3829 10.5203 8.9101 0
M  V30 12 C 14.6045 8.6809 9.1831 0
M  V30 13 H 15.4258 8.2318 9.28 0
M  V30 14 C 13.4207 7.9864 9.2558 0
M  V30 15 C 13.4207 6.5002 9.3109 0
M  V30 16 C 14.5473 4.5604 9.1699 0
M  V30 17 C 15.8373 3.8181 9.0554 0
M  V30 18 C 17.0175 4.4871 8.9871 0
M  V30 19 H 17.0417 5.4255 9.0488 0
M  V30 20 C 18.1859 3.7687 8.8264 0
M  V30 21 H 19.0091 4.2207 8.7669 0
M  V30 22 C 17.0121 1.7676 8.8814 0
M  V30 23 H 17.0148 0.8277 8.8682 0
M  V30 24 C 15.8233 2.4381 9.0356 0
M  V30 25 H 15.0151 1.9652 9.1237 0
M  V30 26 C 19.3967 1.6718 8.3992 0
M  V30 27 H 19.3581 0.7648 8.7669 0
M  V30 28 H 20.1821 2.1238 8.7735 0
M  V30 29 C 19.5001 1.6179 6.9017 0
M  V30 30 C 20.1338 2.6372 6.1882 0
M  V30 31 H 20.566 3.3302 6.6528 0
M  V30 32 C 18.9133 0.5927 6.1904 0
M  V30 33 H 18.5072 -0.1182 6.6528 0
M  V30 34 N 13.4207 10.673 2.1868 0
M  V30 35 N 14.6109 5.8895 1.7089 0
M  V30 36 N 13.4207 3.8615 1.9379 0
M  V30 37 N 18.1545 2.4232 2.255 0
M  V30 38 C 12.2344 12.2101 4.8184 0
M  V30 39 H 11.413 12.2116 4.3581 0
M  V30 40 C 13.4207 12.2086 4.0961 0
M  V30 41 C 13.4207 12.1233 2.6162 0
M  V30 42 H 12.6262 12.5723 2.2594 0
M  V30 43 C 14.5776 10.0384 2.048 0
M  V30 44 H 15.3829 10.5203 2.1009 0
M  V30 45 C 14.6045 8.6809 1.8278 0
M  V30 46 H 15.4258 8.2319 1.7309 0
M  V30 47 C 13.4207 7.9864 1.7551 0
M  V30 48 C 13.4207 6.5002 1.7001 0
M  V30 49 C 14.5473 4.5604 1.841 0
M  V30 50 C 15.8373 3.8181 1.9555 0
M  V30 51 C 17.0175 4.4871 2.0238 0
M  V30 52 H 17.0417 5.4255 1.9622 0
M  V30 53 C 18.1859 3.7687 2.1846 0
M  V30 54 H 19.0091 4.2207 2.244 0
M  V30 55 C 17.0121 1.7676 2.1295 0
M  V30 56 H 17.0148 0.8277 2.1427 0
M  V30 57 C 15.8233 2.4381 1.9754 0
M  V30 58 H 15.0151 1.9652 1.8873 0
M  V30 59 C 19.3967 1.6718 2.6118 0
M  V30 60 H 19.3581 0.7648 2.244 0
M  V30 61 H 20.1821 2.1238 2.2374 0
M  V30 62 C 19.5001 1.6179 4.1093 0
M  V30 63 C 20.1338 2.6372 4.8228 0
M  V30 64 H 20.566 3.3302 4.3581 0
M  V30 65 C 18.9133 0.5927 4.8206 0
M  V30 66 H 18.5072 -0.1182 4.3581 0
M  V30 67 N 12.2306 5.8895 9.3021 0
M  V30 68 N 8.687 2.4232 8.7559 0
M  V30 69 C 14.6071 12.2101 6.1926 0
M  V30 70 H 15.4285 12.2116 6.6528 0
M  V30 71 H 14.2153 12.5723 8.7515 0
M  V30 72 C 12.2639 10.0384 8.9629 0
M  V30 73 H 11.4586 10.5203 8.9101 0
M  V30 74 C 12.237 8.6809 9.1831 0
M  V30 75 H 11.4157 8.2318 9.28 0
M  V30 76 C 12.2942 4.5604 9.1699 0
M  V30 77 C 11.0042 3.8181 9.0554 0
M  V30 78 C 9.824 4.4871 8.9871 0
M  V30 79 H 9.7998 5.4255 9.0488 0
M  V30 80 C 8.6556 3.7687 8.8264 0
M  V30 81 H 7.8323 4.2207 8.7669 0
M  V30 82 C 9.8294 1.7676 8.8814 0
M  V30 83 H 9.8267 0.8277 8.8682 0
M  V30 84 C 11.0182 2.4381 9.0356 0
M  V30 85 H 11.8264 1.9652 9.1237 0
M  V30 86 C 7.4448 1.6718 8.3992 0
M  V30 87 H 7.4834 0.7648 8.7669 0
M  V30 88 H 6.6594 2.1238 8.7735 0
M  V30 89 C 7.3414 1.6179 6.9017 0
M  V30 90 C 6.7077 2.6372 6.1882 0
M  V30 91 H 6.2755 3.3302 6.6528 0
M  V30 92 C 7.9282 0.5927 6.1904 0
M  V30 93 H 8.3343 -0.1182 6.6528 0
M  V30 94 N 12.2306 5.8895 1.7089 0
M  V30 95 N 8.687 2.4232 2.255 0
M  V30 96 C 14.6071 12.2101 4.8184 0
M  V30 97 H 15.4285 12.2116 4.3581 0
M  V30 98 H 14.2153 12.5723 2.2594 0
M  V30 99 C 12.2639 10.0384 2.048 0
M  V30 100 H 11.4586 10.5203 2.1009 0
M  V30 101 C 12.237 8.6809 1.8278 0
M  V30 102 H 11.4157 8.2319 1.7309 0
M  V30 103 C 12.2942 4.5604 1.841 0
M  V30 104 C 11.0042 3.8181 1.9555 0
M  V30 105 C 9.824 4.4871 2.0238 0
M  V30 106 H 9.7998 5.4255 1.9622 0
M  V30 107 C 8.6556 3.7687 2.1846 0
M  V30 108 H 7.8323 4.2207 2.244 0
M  V30 109 C 9.8294 1.7676 2.1295 0
M  V30 110 H 9.8267 0.8277 2.1427 0
M  V30 111 C 11.0182 2.4381 1.9754 0
M  V30 112 H 11.8264 1.9652 1.8873 0
M  V30 113 C 7.4448 1.6718 2.6118 0
M  V30 114 H 7.4834 0.7648 2.244 0
M  V30 115 H 6.6594 2.1238 2.2374 0
M  V30 116 C 7.3414 1.6179 4.1093 0
M  V30 117 C 6.7077 2.6372 4.8228 0
M  V30 118 H 6.2755 3.3302 4.3581 0
M  V30 119 C 7.9282 0.5927 4.8206 0
M  V30 120 H 8.3343 -0.1182 4.3581 0
M  V30 END ATOM
M  V30 BEGIN BOND
M  V30 1 1 1 72
M  V30 2 1 1 10
M  V30 3 2 2 15
M  V30 4 1 3 76
M  V30 5 2 3 16
M  V30 6 1 4 20
M  V30 7 1 4 22
M  V30 8 1 5 6
M  V30 9 2 5 7
M  V30 10 1 7 8
M  V30 11 1 8 71
M  V30 12 1 8 9
M  V30 13 1 8 1
M  V30 14 2 10 12
M  V30 15 1 11 10
M  V30 16 1 12 14
M  V30 17 1 12 13
M  V30 18 1 14 74
M  V30 19 1 14 15
M  V30 20 1 16 2
M  V30 21 1 17 18
M  V30 22 1 17 16
M  V30 23 1 18 19
M  V30 24 2 20 18
M  V30 25 1 21 20
M  V30 26 2 22 24
M  V30 27 1 23 22
M  V30 28 1 24 17
M  V30 29 1 24 25
M  V30 30 1 26 4
M  V30 31 1 26 27
M  V30 32 1 26 28
M  V30 33 1 29 26
M  V30 34 1 30 31
M  V30 35 1 30 29
M  V30 36 1 32 33
M  V30 37 2 32 29
M  V30 38 1 34 41
M  V30 39 1 35 49
M  V30 40 1 37 59
M  V30 41 1 38 5
M  V30 42 1 39 38
M  V30 43 2 40 38
M  V30 44 1 40 96
M  V30 45 1 41 40
M  V30 46 1 42 41
M  V30 47 1 43 44
M  V30 48 1 43 34
M  V30 49 2 45 43
M  V30 50 1 46 45
M  V30 51 1 47 48
M  V30 52 1 47 45
M  V30 53 1 47 101
M  V30 54 2 48 35
M  V30 55 1 48 94
M  V30 56 2 49 36
M  V30 57 1 50 49
M  V30 58 1 50 57
M  V30 59 1 50 51
M  V30 60 2 51 53
M  V30 61 1 52 51
M  V30 62 1 53 54
M  V30 63 1 53 37
M  V30 64 1 55 56
M  V30 65 1 55 37
M  V30 66 2 57 55
M  V30 67 1 58 57
M  V30 68 1 59 62
M  V30 69 1 60 59
M  V30 70 1 61 59
M  V30 71 2 62 65
M  V30 72 1 62 63
M  V30 73 2 63 30
M  V30 74 1 64 63
M  V30 75 1 65 32
M  V30 76 1 66 65
M  V30 77 1 67 15
M  V30 78 1 68 80
M  V30 79 1 68 82
M  V30 80 1 69 70
M  V30 81 1 69 7
M  V30 82 2 72 74
M  V30 83 1 73 72
M  V30 84 1 74 75
M  V30 85 2 76 67
M  V30 86 1 77 78
M  V30 87 1 77 76
M  V30 88 1 78 79
M  V30 89 2 80 78
M  V30 90 1 81 80
M  V30 91 2 82 84
M  V30 92 1 83 82
M  V30 93 1 84 77
M  V30 94 1 84 85
M  V30 95 1 86 68
M  V30 96 1 86 87
M  V30 97 1 86 88
M  V30 98 1 89 86
M  V30 99 1 90 91
M  V30 100 2 90 89
M  V30 101 1 92 93
M  V30 102 1 92 89
M  V30 103 2 94 103
M  V30 104 1 95 113
M  V30 105 2 96 69
M  V30 106 1 97 96
M  V30 107 1 98 41
M  V30 108 1 99 100
M  V30 109 1 99 34
M  V30 110 2 101 99
M  V30 111 1 102 101
M  V30 112 1 103 36
M  V30 113 1 104 103
M  V30 114 1 104 111
M  V30 115 1 104 105
M  V30 116 2 105 107
M  V30 117 1 106 105
M  V30 118 1 107 108
M  V30 119 1 107 95
M  V30 120 1 109 110
M  V30 121 1 109 95
M  V30 122 2 111 109
M  V30 123 1 112 111
M  V30 124 1 113 116
M  V30 125 1 114 113
M  V30 126 1 115 113
M  V30 127 1 116 119
M  V30 128 2 116 117
M  V30 129 1 117 90
M  V30 130 1 118 117
M  V30 131 2 119 92
M  V30 132 1 120 119
M  V30 END BOND
M  V30 END CTAB
M  END
