
     RDKit          3D

  0  0  0  0  0  0  0  0  0  0999 V3000
M  V30 BEGIN CTAB
M  V30 COUNTS 276 294 0 0 0
M  V30 BEGIN ATOM
M  V30 1 C -2.4983 12.1719 21.6814 0
M  V30 2 C -1.6456 12.2916 20.5837 0
M  V30 3 H -1.935 12.7678 19.813 0
M  V30 4 C -0.3793 11.7232 20.6035 0
M  V30 5 C 0.0336 11.0543 21.7528 0
M  V30 6 H 0.9093 10.6881 21.7824 0
M  V30 7 C -0.8029 10.9059 22.8633 0
M  V30 8 C -2.0652 11.4779 22.8059 0
M  V30 9 H -2.6465 11.3953 23.5511 0
M  V30 10 C 0.5147 11.8081 19.4021 0
M  V30 11 C 0.5162 12.9198 18.5688 0
M  V30 12 H -0.0669 13.6449 18.7586 0
M  V30 13 C 1.3543 12.9928 17.4616 0
M  V30 14 C 2.2154 11.9182 17.2001 0
M  V30 15 H 2.8163 11.9625 16.466 0
M  V30 16 C 2.1945 10.785 18.0086 0
M  V30 17 C 1.3518 10.7252 19.1024 0
M  V30 18 H 1.3404 9.951 19.6531 0
M  V30 19 C 1.3928 14.2085 16.5837 0
M  V30 20 H 1.4671 13.9154 15.6395 0
M  V30 21 H 0.5347 14.6944 16.6803 0
M  V30 22 C 2.5142 15.1587 16.879 0
M  V30 23 H 3.3718 14.6704 16.813 0
M  V30 24 H 2.422 15.4805 17.8096 0
M  V30 25 C 2.5589 16.3804 15.932 0
M  V30 26 H 2.59 16.0717 15.0035 0
M  V30 27 H 3.3592 16.9141 16.1259 0
M  V30 28 H 1.7593 16.9296 16.0681 0
M  V30 29 C 3.0577 9.6459 17.7181 0
M  V30 30 C 3.7533 8.6898 17.5041 0
M  V30 31 C 4.5921 7.5745 17.2909 0
M  V30 32 C 5.3274 7.4357 16.1232 0
M  V30 33 H 5.2405 8.0951 15.4456 0
M  V30 34 C 6.1859 6.3624 15.9126 0
M  V30 35 C 6.2786 5.3931 16.916 0
M  V30 36 H 6.8655 4.6572 16.7926 0
M  V30 37 C 5.5281 5.4721 18.1048 0
M  V30 38 C 4.6866 6.5634 18.2817 0
M  V30 39 H 4.167 6.6328 19.0749 0
M  V30 40 C 7.0098 6.275 14.6752 0
M  V30 41 H 7.6455 5.5236 14.7756 0
M  V30 42 H 7.5416 7.1055 14.5919 0
M  V30 43 C 6.2304 6.0752 13.3902 0
M  V30 44 H 5.6 6.8291 13.2722 0
M  V30 45 H 5.6988 5.2435 13.4592 0
M  V30 46 C 7.1331 5.9854 12.1664 0
M  V30 47 H 7.6972 6.7848 12.1191 0
M  V30 48 H 6.5824 5.9256 11.3572 0
M  V30 49 H 7.7001 5.1885 12.2347 0
M  V30 50 C 5.6136 4.4143 19.1419 0
M  V30 51 C 5.9636 3.1196 18.8093 0
M  V30 52 H 6.1575 2.9125 17.9014 0
M  V30 53 C 6.0406 2.0989 19.7715 0
M  V30 54 C 5.7274 2.4172 21.0957 0
M  V30 55 H 5.7602 1.7375 21.7586 0
M  V30 56 C 5.375 3.7023 21.462 0
M  V30 57 C 5.3279 4.7027 20.4895 0
M  V30 58 H 5.1028 5.5906 20.7416 0
M  V30 59 C 5.0109 4.0577 22.8719 0
M  V30 60 C 5.5636 3.3708 23.9423 0
M  V30 61 H 6.1793 2.6684 23.7688 0
M  V30 62 C 5.2471 3.6748 25.264 0
M  V30 63 C 4.3373 4.7015 25.4916 0
M  V30 64 H 4.1008 4.9205 26.3844 0
M  V30 65 C 3.7691 5.4099 24.4596 0
M  V30 66 C 4.1252 5.0844 23.1314 0
M  V30 67 H 3.7508 5.5774 22.4116 0
M  V30 68 C 6.0241 3.0801 26.4083 0
M  V30 69 H 5.5121 3.2392 27.2382 0
M  V30 70 H 6.0661 2.1 26.2722 0
M  V30 71 C 7.3759 3.5587 26.6191 0
M  V30 72 H 7.9092 3.4067 25.7994 0
M  V30 73 H 7.7945 3.0442 27.3538 0
M  V30 74 C 7.3945 5.0521 26.9695 0
M  V30 75 H 6.789 5.5355 26.3708 0
M  V30 76 H 8.3038 5.4015 26.864 0
M  V30 77 H 7.1031 5.1741 27.8981 0
M  V30 78 C 2.8345 6.4796 24.6899 0
M  V30 79 C 2.0327 7.3615 24.8566 0
M  V30 80 C 1.0513 8.3978 25.0361 0
M  V30 81 C 0.5008 8.6874 26.2732 0
M  V30 82 H 0.7856 8.186 27.0273 0
M  V30 83 C -0.4362 9.6662 26.4474 0
M  V30 84 C -0.8415 10.4129 25.3368 0
M  V30 85 H -1.4661 11.1201 25.4525 0
M  V30 86 C -0.3394 10.1365 24.0406 0
M  V30 87 C 0.61 9.1206 23.9069 0
M  V30 88 H 0.9611 8.9147 23.0477 0
M  V30 89 C -1.0171 9.9546 27.8273 0
M  V30 90 H -0.2777 9.9989 28.4831 0
M  V30 91 H -1.4616 10.8389 27.813 0
M  V30 92 C -2.015 8.91 28.279 0
M  V30 93 H -2.7948 8.9303 27.6702 0
M  V30 94 H -1.5969 8.0161 28.2008 0
M  V30 95 C -2.4925 9.0978 29.677 0
M  V30 96 H -1.7242 9.1194 30.2858 0
M  V30 97 H -3.0832 8.3559 29.9219 0
M  V30 98 H -2.9845 9.9426 29.745 0
M  V30 99 C -3.877 12.7738 21.5997 0
M  V30 100 C -4.5427 12.7906 20.3963 0
M  V30 101 H -4.1356 12.3933 19.6361 0
M  V30 102 C -5.8134 13.3817 20.2623 0
M  V30 103 C -6.3782 13.98 21.3766 0
M  V30 104 H -7.2318 14.3916 21.3062 0
M  V30 105 C -5.7097 13.986 22.6014 0
M  V30 106 C -4.4859 13.3542 22.6916 0
M  V30 107 H -4.0478 13.3195 23.5341 0
M  V30 108 C -6.2793 14.7159 23.7994 0
M  V30 109 H -6.3144 14.1056 24.5783 0
M  V30 110 H -7.2014 15.0175 23.6021 0
M  V30 111 C -5.3352 16.013 24.1531 0
M  V30 112 H -4.4075 15.7091 24.3198 0
M  V30 113 H -5.3216 16.6305 23.381 0
M  V30 114 C -5.8557 16.7442 25.3742 0
M  V30 115 H -6.8332 16.8052 25.3266 0
M  V30 116 H -5.4724 17.6464 25.4015 0
M  V30 117 H -5.5966 16.2547 26.1838 0
M  V30 118 C -6.4314 13.3039 18.9742 0
M  V30 119 C -6.7849 13.1854 17.8157 0
M  V30 120 C -7.1005 12.8899 16.4718 0
M  V30 121 C -6.6864 11.6502 15.9633 0
M  V30 122 H -6.1691 11.0746 16.5137 0
M  V30 123 C -7.0098 11.2445 14.6881 0
M  V30 124 C -7.7137 12.1324 13.881 0
M  V30 125 H -7.9287 11.8752 12.9932 0
M  V30 126 C -8.1154 13.3853 14.3368 0
M  V30 127 C -7.8269 13.7443 15.6307 0
M  V30 128 H -8.1242 14.5843 15.9626 0
M  V30 129 C -8.8522 14.3485 13.4344 0
M  V30 130 H -8.7399 15.2652 13.7926 0
M  V30 131 H -8.4329 14.3246 12.5375 0
M  V30 132 C -10.3105 14.0721 13.2858 0
M  V30 133 H -10.6874 14.6956 12.6157 0
M  V30 134 H -10.4279 13.1519 12.9388 0
M  V30 135 C -11.0655 14.2097 14.5419 0
M  V30 136 H -10.7508 13.5408 15.1871 0
M  V30 137 H -12.0194 14.0721 14.3674 0
M  V30 138 H -10.927 15.1072 14.9082 0
M  V30 139 C 1.8992 -0.2058 12.3324 0
M  V30 140 C 1.0465 -0.3255 13.43 0
M  V30 141 H 1.336 -0.8017 14.2007 0
M  V30 142 C -0.2197 0.2429 13.4103 0
M  V30 143 C -0.6326 0.9118 12.2609 0
M  V30 144 H -1.5083 1.278 12.2313 0
M  V30 145 C 0.2038 1.0602 11.1504 0
M  V30 146 C 1.4661 0.4882 11.2079 0
M  V30 147 H 2.0474 0.5708 10.4626 0
M  V30 148 C -1.1138 0.158 14.6116 0
M  V30 149 C -1.1153 -0.9537 15.445 0
M  V30 150 H -0.5322 -1.6788 15.2552 0
M  V30 151 C -1.9534 -1.0267 16.5521 0
M  V30 152 C -2.8144 0.0479 16.8137 0
M  V30 153 H -3.4153 0.0036 17.5477 0
M  V30 154 C -2.7936 1.1811 16.0052 0
M  V30 155 C -1.9508 1.2409 14.9113 0
M  V30 156 H -1.9395 2.0151 14.3606 0
M  V30 157 C -1.9919 -2.2424 17.43 0
M  V30 158 H -2.0662 -1.9493 18.3742 0
M  V30 159 H -1.1337 -2.7283 17.3334 0
M  V30 160 C -3.1132 -3.1926 17.1348 0
M  V30 161 H -3.9709 -2.7043 17.2007 0
M  V30 162 H -3.0211 -3.5144 16.2041 0
M  V30 163 C -3.1579 -4.4143 18.0817 0
M  V30 164 H -3.1891 -4.1056 19.0103 0
M  V30 165 H -3.9583 -4.948 17.8878 0
M  V30 166 H -2.3584 -4.9635 17.9456 0
M  V30 167 C -3.6568 2.3202 16.2956 0
M  V30 168 C -4.3523 3.2763 16.5096 0
M  V30 169 C -5.1911 4.3916 16.7228 0
M  V30 170 C -5.9265 4.5304 17.8905 0
M  V30 171 H -5.8396 3.871 18.5681 0
M  V30 172 C -6.785 5.6037 18.1011 0
M  V30 173 C -6.8777 6.573 17.0977 0
M  V30 174 H -7.4645 7.3089 17.2211 0
M  V30 175 C -6.1271 6.494 15.9089 0
M  V30 176 C -5.2857 5.4027 15.732 0
M  V30 177 H -4.7661 5.3333 14.9388 0
M  V30 178 C -7.6089 5.6911 19.3385 0
M  V30 179 H -8.2445 6.4425 19.2382 0
M  V30 180 H -8.1407 4.8606 19.4218 0
M  V30 181 C -6.8294 5.8909 20.6235 0
M  V30 182 H -6.1991 5.137 20.7416 0
M  V30 183 H -6.2979 6.7226 20.5545 0
M  V30 184 C -7.7321 5.9807 21.8474 0
M  V30 185 H -8.2963 5.1813 21.8946 0
M  V30 186 H -7.1815 6.0405 22.6565 0
M  V30 187 H -8.2992 6.7776 21.779 0
M  V30 188 C -6.2126 7.5518 14.8718 0
M  V30 189 C -6.5627 8.8465 15.2045 0
M  V30 190 H -6.7566 9.0536 16.1123 0
M  V30 191 C -6.6396 9.8672 14.2422 0
M  V30 192 C -6.3264 9.5489 12.9181 0
M  V30 193 H -6.3592 10.2286 12.2551 0
M  V30 194 C -5.9741 8.2638 12.5517 0
M  V30 195 C -5.927 7.2634 13.5242 0
M  V30 196 H -5.7019 6.3755 13.2722 0
M  V30 197 C -5.61 7.9084 11.1419 0
M  V30 198 C -6.1627 8.5952 10.0715 0
M  V30 199 H -6.7784 9.2977 10.2449 0
M  V30 200 C -5.8462 8.2913 8.7497 0
M  V30 201 C -4.9363 7.2646 8.5221 0
M  V30 202 H -4.6999 7.0456 7.6293 0
M  V30 203 C -4.3682 6.5562 9.5541 0
M  V30 204 C -4.7243 6.8817 10.8824 0
M  V30 205 H -4.3499 6.3887 11.6021 0
M  V30 206 C -6.6232 8.886 7.6055 0
M  V30 207 H -6.1112 8.7269 6.7755 0
M  V30 208 H -6.6651 9.866 7.7415 0
M  V30 209 C -7.975 8.4074 7.3946 0
M  V30 210 H -8.5082 8.5594 8.2143 0
M  V30 211 H -8.3936 8.9219 6.6599 0
M  V30 212 C -7.9935 6.914 7.0442 0
M  V30 213 H -7.3881 6.4306 7.6429 0
M  V30 214 H -8.9029 6.5646 7.1497 0
M  V30 215 H -7.7021 6.792 6.1157 0
M  V30 216 C -3.4335 5.4865 9.3238 0
M  V30 217 C -2.6318 4.6046 9.1572 0
M  V30 218 C -1.6503 3.5683 8.9776 0
M  V30 219 C -1.0998 3.2787 7.7405 0
M  V30 220 H -1.3847 3.7801 6.9864 0
M  V30 221 C -0.1629 2.2999 7.5664 0
M  V30 222 C 0.2425 1.5532 8.6769 0
M  V30 223 H 0.8671 0.846 8.5613 0
M  V30 224 C -0.2596 1.8296 9.9732 0
M  V30 225 C -1.209 2.8455 10.1068 0
M  V30 226 H -1.5602 3.0514 10.966 0
M  V30 227 C 0.4181 2.0115 6.1864 0
M  V30 228 H -0.3214 1.9672 5.5306 0
M  V30 229 H 0.8625 1.1272 6.2007 0
M  V30 230 C 1.4159 3.0561 5.7347 0
M  V30 231 H 2.1958 3.0358 6.3436 0
M  V30 232 H 0.9978 3.95 5.8129 0
M  V30 233 C 1.8935 2.8683 4.3368 0
M  V30 234 H 1.1251 2.8467 3.7279 0
M  V30 235 H 2.4841 3.6102 4.0919 0
M  V30 236 H 2.3855 2.0235 4.2687 0
M  V30 237 C 3.278 -0.8077 12.414 0
M  V30 238 C 3.9436 -0.8245 13.6174 0
M  V30 239 H 3.5366 -0.4272 14.3776 0
M  V30 240 C 5.2144 -1.4156 13.7514 0
M  V30 241 C 5.7792 -2.0139 12.6371 0
M  V30 242 H 6.6327 -2.4255 12.7075 0
M  V30 243 C 5.1106 -2.0199 11.4123 0
M  V30 244 C 3.8868 -1.3881 11.3222 0
M  V30 245 H 3.4488 -1.3534 10.4796 0
M  V30 246 C 5.6802 -2.7498 10.2143 0
M  V30 247 H 5.7153 -2.1395 9.4354 0
M  V30 248 H 6.6024 -3.0514 10.4116 0
M  V30 249 C 4.7361 -4.0469 9.8606 0
M  V30 250 H 3.8085 -3.743 9.6939 0
M  V30 251 H 4.7225 -4.6644 10.6327 0
M  V30 252 C 5.2567 -4.7781 8.6395 0
M  V30 253 H 6.2341 -4.8391 8.6871 0
M  V30 254 H 4.8734 -5.6803 8.6123 0
M  V30 255 H 4.9975 -4.2887 7.83 0
M  V30 256 C 5.8324 -1.3378 15.0395 0
M  V30 257 C 6.1859 -1.2193 16.198 0
M  V30 258 C 6.5015 -0.9238 17.5419 0
M  V30 259 C 6.0874 0.3159 18.0504 0
M  V30 260 H 5.57 0.8915 17.5001 0
M  V30 261 C 6.4108 0.7216 19.3256 0
M  V30 262 C 7.1147 -0.1663 20.1327 0
M  V30 263 H 7.3296 0.0909 21.0205 0
M  V30 264 C 7.5163 -1.4192 19.6769 0
M  V30 265 C 7.2278 -1.7782 18.3831 0
M  V30 266 H 7.5252 -2.6182 18.0511 0
M  V30 267 C 8.2531 -2.3825 20.5793 0
M  V30 268 H 8.1408 -3.2991 20.2212 0
M  V30 269 H 7.8338 -2.3585 21.4763 0
M  V30 270 C 9.7114 -2.106 20.728 0
M  V30 271 H 10.0883 -2.7295 21.398 0
M  V30 272 H 9.8288 -1.1858 21.0749 0
M  V30 273 C 10.4664 -2.2436 19.4718 0
M  V30 274 H 10.1517 -1.5747 18.8266 0
M  V30 275 H 11.4203 -2.106 19.6463 0
M  V30 276 H 10.328 -3.1411 19.1055 0
M  V30 END ATOM
M  V30 BEGIN BOND
M  V30 1 2 1 8
M  V30 2 2 2 4
M  V30 3 1 2 1
M  V30 4 1 3 2
M  V30 5 1 4 5
M  V30 6 1 5 6
M  V30 7 2 5 7
M  V30 8 1 7 86
M  V30 9 1 8 7
M  V30 10 1 8 9
M  V30 11 1 10 4
M  V30 12 1 11 12
M  V30 13 1 11 10
M  V30 14 2 13 11
M  V30 15 1 14 13
M  V30 16 2 14 16
M  V30 17 1 15 14
M  V30 18 1 16 17
M  V30 19 2 17 10
M  V30 20 1 17 18
M  V30 21 1 19 21
M  V30 22 1 19 22
M  V30 23 1 19 13
M  V30 24 1 20 19
M  V30 25 1 22 24
M  V30 26 1 23 22
M  V30 27 1 25 28
M  V30 28 1 25 27
M  V30 29 1 25 22
M  V30 30 1 26 25
M  V30 31 1 29 16
M  V30 32 3 30 29
M  V30 33 1 31 30
M  V30 34 2 31 38
M  V30 35 1 32 31
M  V30 36 1 33 32
M  V30 37 2 34 32
M  V30 38 1 34 35
M  V30 39 2 35 37
M  V30 40 1 36 35
M  V30 41 1 37 38
M  V30 42 1 37 50
M  V30 43 1 38 39
M  V30 44 1 40 41
M  V30 45 1 40 34
M  V30 46 1 42 40
M  V30 47 1 43 45
M  V30 48 1 43 40
M  V30 49 1 44 43
M  V30 50 1 46 49
M  V30 51 1 46 43
M  V30 52 1 47 46
M  V30 53 1 48 46
M  V30 54 2 50 57
M  V30 55 1 51 50
M  V30 56 2 51 53
M  V30 57 1 52 51
M  V30 58 1 53 54
M  V30 59 2 54 56
M  V30 60 1 54 55
M  V30 61 1 56 59
M  V30 62 1 57 58
M  V30 63 1 57 56
M  V30 64 2 59 66
M  V30 65 1 59 60
M  V30 66 2 60 62
M  V30 67 1 61 60
M  V30 68 1 62 63
M  V30 69 1 62 68
M  V30 70 1 63 64
M  V30 71 1 65 78
M  V30 72 2 65 63
M  V30 73 1 66 65
M  V30 74 1 67 66
M  V30 75 1 68 71
M  V30 76 1 68 69
M  V30 77 1 70 68
M  V30 78 1 71 74
M  V30 79 1 71 73
M  V30 80 1 72 71
M  V30 81 1 74 77
M  V30 82 1 75 74
M  V30 83 1 76 74
M  V30 84 3 78 79
M  V30 85 1 79 80
M  V30 86 2 80 81
M  V30 87 1 81 83
M  V30 88 1 81 82
M  V30 89 1 83 89
M  V30 90 1 84 85
M  V30 91 2 84 83
M  V30 92 1 86 84
M  V30 93 2 87 86
M  V30 94 1 87 80
M  V30 95 1 88 87
M  V30 96 1 89 92
M  V30 97 1 89 90
M  V30 98 1 91 89
M  V30 99 1 92 95
M  V30 100 1 93 92
M  V30 101 1 94 92
M  V30 102 1 95 98
M  V30 103 1 95 97
M  V30 104 1 95 96
M  V30 105 1 99 1
M  V30 106 2 99 106
M  V30 107 1 100 99
M  V30 108 1 101 100
M  V30 109 2 102 100
M  V30 110 1 102 103
M  V30 111 2 103 105
M  V30 112 1 104 103
M  V30 113 1 105 106
M  V30 114 1 105 108
M  V30 115 1 106 107
M  V30 116 1 108 111
M  V30 117 1 108 109
M  V30 118 1 110 108
M  V30 119 1 111 112
M  V30 120 1 111 114
M  V30 121 1 113 111
M  V30 122 1 114 116
M  V30 123 1 114 117
M  V30 124 1 115 114
M  V30 125 1 118 102
M  V30 126 3 119 118
M  V30 127 1 120 119
M  V30 128 2 121 120
M  V30 129 1 121 122
M  V30 130 1 123 121
M  V30 131 1 124 126
M  V30 132 2 124 123
M  V30 133 1 125 124
M  V30 134 2 126 127
M  V30 135 1 127 128
M  V30 136 1 127 120
M  V30 137 1 129 130
M  V30 138 1 129 126
M  V30 139 1 131 129
M  V30 140 1 132 129
M  V30 141 1 132 135
M  V30 142 1 133 132
M  V30 143 1 134 132
M  V30 144 1 135 138
M  V30 145 1 135 136
M  V30 146 1 137 135
M  V30 147 1 139 237
M  V30 148 1 139 140
M  V30 149 1 140 141
M  V30 150 2 142 140
M  V30 151 1 142 148
M  V30 152 1 143 142
M  V30 153 1 144 143
M  V30 154 1 145 146
M  V30 155 2 145 143
M  V30 156 2 146 139
M  V30 157 1 147 146
M  V30 158 2 148 155
M  V30 159 1 148 149
M  V30 160 2 149 151
M  V30 161 1 150 149
M  V30 162 1 151 152
M  V30 163 1 151 157
M  V30 164 1 152 153
M  V30 165 1 154 167
M  V30 166 2 154 152
M  V30 167 1 155 154
M  V30 168 1 156 155
M  V30 169 1 157 158
M  V30 170 1 159 157
M  V30 171 1 160 161
M  V30 172 1 160 157
M  V30 173 1 160 163
M  V30 174 1 162 160
M  V30 175 1 163 164
M  V30 176 1 165 163
M  V30 177 1 166 163
M  V30 178 3 167 168
M  V30 179 1 168 169
M  V30 180 1 169 170
M  V30 181 2 170 172
M  V30 182 1 170 171
M  V30 183 1 172 178
M  V30 184 1 173 174
M  V30 185 1 173 172
M  V30 186 2 175 173
M  V30 187 1 176 175
M  V30 188 2 176 169
M  V30 189 1 177 176
M  V30 190 1 178 180
M  V30 191 1 178 181
M  V30 192 1 179 178
M  V30 193 1 181 182
M  V30 194 1 181 184
M  V30 195 1 183 181
M  V30 196 1 184 185
M  V30 197 1 184 186
M  V30 198 1 187 184
M  V30 199 1 188 189
M  V30 200 1 188 175
M  V30 201 1 189 190
M  V30 202 1 191 123
M  V30 203 2 191 189
M  V30 204 1 192 191
M  V30 205 1 193 192
M  V30 206 2 194 192
M  V30 207 1 194 195
M  V30 208 2 195 188
M  V30 209 1 196 195
M  V30 210 1 197 194
M  V30 211 1 198 199
M  V30 212 2 198 197
M  V30 213 1 200 198
M  V30 214 2 201 200
M  V30 215 1 201 203
M  V30 216 1 202 201
M  V30 217 2 203 204
M  V30 218 1 204 197
M  V30 219 1 204 205
M  V30 220 1 206 208
M  V30 221 1 206 200
M  V30 222 1 207 206
M  V30 223 1 209 206
M  V30 224 1 209 210
M  V30 225 1 211 209
M  V30 226 1 212 214
M  V30 227 1 212 209
M  V30 228 1 212 213
M  V30 229 1 215 212
M  V30 230 1 216 203
M  V30 231 3 217 216
M  V30 232 1 218 217
M  V30 233 2 218 225
M  V30 234 1 219 218
M  V30 235 1 220 219
M  V30 236 2 221 219
M  V30 237 1 221 222
M  V30 238 2 222 224
M  V30 239 1 223 222
M  V30 240 1 224 225
M  V30 241 1 224 145
M  V30 242 1 225 226
M  V30 243 1 227 229
M  V30 244 1 227 221
M  V30 245 1 228 227
M  V30 246 1 230 232
M  V30 247 1 230 227
M  V30 248 1 230 231
M  V30 249 1 233 230
M  V30 250 1 234 233
M  V30 251 1 235 233
M  V30 252 1 236 233
M  V30 253 2 237 238
M  V30 254 1 238 240
M  V30 255 1 238 239
M  V30 256 1 240 256
M  V30 257 1 241 242
M  V30 258 2 241 240
M  V30 259 1 243 241
M  V30 260 2 244 243
M  V30 261 1 244 237
M  V30 262 1 245 244
M  V30 263 1 246 248
M  V30 264 1 246 243
M  V30 265 1 247 246
M  V30 266 1 249 246
M  V30 267 1 249 251
M  V30 268 1 250 249
M  V30 269 1 252 253
M  V30 270 1 252 249
M  V30 271 1 254 252
M  V30 272 1 255 252
M  V30 273 3 256 257
M  V30 274 1 257 258
M  V30 275 2 258 259
M  V30 276 1 258 265
M  V30 277 1 259 261
M  V30 278 1 260 259
M  V30 279 1 261 53
M  V30 280 2 261 262
M  V30 281 1 262 263
M  V30 282 1 264 262
M  V30 283 1 264 267
M  V30 284 2 265 264
M  V30 285 1 266 265
M  V30 286 1 267 270
M  V30 287 1 267 269
M  V30 288 1 268 267
M  V30 289 1 270 272
M  V30 290 1 270 271
M  V30 291 1 273 275
M  V30 292 1 273 270
M  V30 293 1 274 273
M  V30 294 1 276 273
M  V30 END BOND
M  V30 END CTAB
M  END
