
 OpenBabel07061518363D

168180  0  0  1  0  0  0  0  0999 V2000
   -4.1278   -3.8829    0.5560 N   0  0  0  0  0  0  0  0  0  0  0  0
   -2.9126   -2.7669   -1.7915 C   0  0  0  0  0  0  0  0  0  0  0  0
   -2.2824   -3.6496   -0.9286 C   0  0  0  0  0  0  0  0  0  0  0  0
   -2.9454   -4.1223    0.2855 C   0  0  0  0  0  0  0  0  0  0  0  0
   -4.6906   -4.4483    1.7716 C   0  0  2  0  0  0  0  0  0  0  0  0
   -5.8506   -5.3540    1.3857 C   0  0  0  0  0  0  0  0  0  0  0  0
   -6.5290   -5.9093    2.6308 C   0  0  0  0  0  0  0  0  0  0  0  0
   -3.7681   -2.4655   -1.5858 H   0  0  0  0  0  0  0  0  0  0  0  0
   -2.4500   -4.6294    0.8871 H   0  0  0  0  0  0  0  0  0  0  0  0
   -4.0066   -4.9675    2.2435 H   0  0  0  0  0  0  0  0  0  0  0  0
   -5.5232   -6.0874    0.8400 H   0  0  0  0  0  0  0  0  0  0  0  0
   -6.4945   -4.8520    0.8623 H   0  0  0  0  0  0  0  0  0  0  0  0
   -7.2594   -6.4946    2.3763 H   0  0  0  0  0  0  0  0  0  0  0  0
   -5.8932   -6.4296    3.1488 H   0  0  0  0  0  0  0  0  0  0  0  0
    1.5287   -5.0552   -2.1291 N   0  0  0  0  0  0  0  0  0  0  0  0
   -2.5797   -1.0927   -4.9574 N   0  0  0  0  0  0  0  0  0  0  0  0
   -4.0345   -2.5562    3.1006 N   0  0  0  0  0  0  0  0  0  0  0  0
   -2.3571    1.7686   -4.8724 N   0  0  0  0  0  0  0  0  0  0  0  0
    3.9904   -3.8631   -1.2560 N   0  0  0  0  0  0  0  0  0  0  0  0
    3.6965   -0.7119    4.2724 N   0  0  0  0  0  0  0  0  0  0  0  0
    1.2403    0.0361    5.5574 N   0  0  0  0  0  0  0  0  0  0  0  0
   -3.1803    3.7522    2.8690 N   0  0  0  0  0  0  0  0  0  0  0  0
    3.1288    4.0196   -2.5451 N   0  0  0  0  0  0  0  0  0  0  0  0
   -2.3388    5.1661    0.5161 N   0  0  0  0  0  0  0  0  0  0  0  0
    5.0334    2.4194   -1.1115 N   0  0  0  0  0  0  0  0  0  0  0  0
   -1.0281   -4.0880   -1.2567 C   0  0  0  0  0  0  0  0  0  0  0  0
   -1.0412   -2.7942   -3.2337 C   0  0  0  0  0  0  0  0  0  0  0  0
   -1.7969   -0.9483    3.9013 C   0  0  0  0  0  0  0  0  0  0  0  0
   -1.8073    3.1841   -2.4379 C   0  0  0  0  0  0  0  0  0  0  0  0
    4.2125   -1.0577   -0.6964 C   0  0  0  0  0  0  0  0  0  0  0  0
    3.7785   -1.6291    1.5548 C   0  0  0  0  0  0  0  0  0  0  0  0
   -0.9300    1.2391    4.1168 C   0  0  0  0  0  0  0  0  0  0  0  0
   -3.0202    0.8944    3.0703 C   0  0  0  0  0  0  0  0  0  0  0  0
    0.4640    3.1021   -3.0838 C   0  0  0  0  0  0  0  0  0  0  0  0
   -0.1642    4.2513   -1.1172 C   0  0  0  0  0  0  0  0  0  0  0  0
    4.2454    0.6131    0.9740 C   0  0  0  0  0  0  0  0  0  0  0  0
   -0.3836   -3.6662   -2.4089 C   0  0  0  0  0  0  0  0  0  0  0  0
   -2.3118   -2.3254   -2.9393 C   0  0  0  0  0  0  0  0  0  0  0  0
   -2.9237   -0.4575    3.2609 C   0  0  0  0  0  0  0  0  0  0  0  0
   -0.8371    2.7565   -3.3305 C   0  0  0  0  0  0  0  0  0  0  0  0
    3.9038   -2.0222    0.2498 C   0  0  0  0  0  0  0  0  0  0  0  0
    3.9412   -0.3077    1.9399 C   0  0  0  0  0  0  0  0  0  0  0  0
   -0.7924   -0.1234    4.3299 C   0  0  0  0  0  0  0  0  0  0  0  0
   -2.0263    1.7651    3.4885 C   0  0  0  0  0  0  0  0  0  0  0  0
    0.8248    3.8491   -1.9736 C   0  0  0  0  0  0  0  0  0  0  0  0
   -1.4939    3.9233   -1.3294 C   0  0  0  0  0  0  0  0  0  0  0  0
    4.3813    0.2579   -0.3587 C   0  0  0  0  0  0  0  0  0  0  0  0
    0.9504   -4.1567   -2.7511 C   0  0  0  0  0  0  0  0  0  0  0  0
   -3.0053   -1.4058   -3.8396 C   0  0  0  0  0  0  0  0  0  0  0  0
   -3.9939   -1.3520    2.8232 C   0  0  0  0  0  0  0  0  0  0  0  0
   -1.1919    1.9804   -4.5175 C   0  0  0  0  0  0  0  0  0  0  0  0
    3.7418   -3.4254   -0.1267 C   0  0  0  0  0  0  0  0  0  0  0  0
    3.8185    0.0917    3.3408 C   0  0  0  0  0  0  0  0  0  0  0  0
    0.3787   -0.6663    5.0163 C   0  0  0  0  0  0  0  0  0  0  0  0
   -2.1531    3.2079    3.2899 C   0  0  0  0  0  0  0  0  0  0  0  0
    2.2179    4.2219   -1.7339 C   0  0  0  0  0  0  0  0  0  0  0  0
   -2.5390    4.3742   -0.4121 C   0  0  0  0  0  0  0  0  0  0  0  0
    4.7214    1.2524   -1.3748 C   0  0  0  0  0  0  0  0  0  0  0  0
    2.8353   -5.4919   -2.5937 C   0  0  1  0  0  0  0  0  0  0  0  0
   -3.3828   -0.2052   -5.7829 C   0  0  1  0  0  0  0  0  0  0  0  0
   -5.1758   -3.3352    2.6485 C   0  0  2  0  0  0  0  0  0  0  0  0
   -2.5848    1.0222   -6.0992 C   0  0  1  0  0  0  0  0  0  0  0  0
    3.8360   -5.2884   -1.4981 C   0  0  1  0  0  0  0  0  0  0  0  0
    3.6314   -0.1966    5.6304 C   0  0  1  0  0  0  0  0  0  0  0  0
    2.3362   -0.6204    6.2517 C   0  0  1  0  0  0  0  0  0  0  0  0
   -3.2030    5.2018    2.7585 C   0  0  1  0  0  0  0  0  0  0  0  0
    4.4682    4.4787   -2.2144 C   0  0  1  0  0  0  0  0  0  0  0  0
   -3.4683    5.5785    1.3333 C   0  0  1  0  0  0  0  0  0  0  0  0
    5.3982    3.3047   -2.2056 C   0  0  1  0  0  0  0  0  0  0  0  0
    2.7466   -6.9674   -2.9540 C   0  0  0  0  0  0  0  0  0  0  0  0
   -3.7430   -0.9401   -7.0655 C   0  0  0  0  0  0  0  0  0  0  0  0
   -5.8827   -3.9022    3.8706 C   0  0  0  0  0  0  0  0  0  0  0  0
   -3.3538    1.9116   -7.0649 C   0  0  0  0  0  0  0  0  0  0  0  0
    5.1870   -5.8527   -1.9120 C   0  0  0  0  0  0  0  0  0  0  0  0
    4.8011   -0.7698    6.4165 C   0  0  0  0  0  0  0  0  0  0  0  0
    2.2956   -0.2018    7.7139 C   0  0  0  0  0  0  0  0  0  0  0  0
   -4.3116    5.7329    3.6551 C   0  0  0  0  0  0  0  0  0  0  0  0
    4.9040    5.4836   -3.2704 C   0  0  0  0  0  0  0  0  0  0  0  0
   -3.6221    7.0873    1.2109 C   0  0  0  0  0  0  0  0  0  0  0  0
    6.8292    3.7726   -1.9860 C   0  0  0  0  0  0  0  0  0  0  0  0
    4.1125   -7.4964   -3.3705 C   0  0  0  0  0  0  0  0  0  0  0  0
   -4.5174   -0.0243   -8.0038 C   0  0  0  0  0  0  0  0  0  0  0  0
   -7.0411   -4.7959    3.4484 C   0  0  0  0  0  0  0  0  0  0  0  0
   -3.6903    1.1480   -8.3386 C   0  0  0  0  0  0  0  0  0  0  0  0
    5.0631   -7.3306   -2.2573 C   0  0  0  0  0  0  0  0  0  0  0  0
    4.7335   -0.3249    7.8713 C   0  0  0  0  0  0  0  0  0  0  0  0
    3.4742   -0.7988    8.4712 C   0  0  0  0  0  0  0  0  0  0  0  0
   -4.4321    7.2443    3.5137 C   0  0  0  0  0  0  0  0  0  0  0  0
    6.3357    5.9358   -3.0157 C   0  0  0  0  0  0  0  0  0  0  0  0
   -4.7435    7.5828    2.1141 C   0  0  0  0  0  0  0  0  0  0  0  0
    7.2344    4.7694   -3.0635 C   0  0  0  0  0  0  0  0  0  0  0  0
   -0.5969   -4.6861   -0.6897 H   0  0  0  0  0  0  0  0  0  0  0  0
   -0.6226   -2.5087   -4.0138 H   0  0  0  0  0  0  0  0  0  0  0  0
   -1.7202   -1.8641    4.0445 H   0  0  0  0  0  0  0  0  0  0  0  0
   -2.6969    2.9632   -2.5958 H   0  0  0  0  0  0  0  0  0  0  0  0
    4.3079   -1.3105   -1.5864 H   0  0  0  0  0  0  0  0  0  0  0  0
    3.5785   -2.2677    2.2008 H   0  0  0  0  0  0  0  0  0  0  0  0
   -0.2590    1.8132    4.4087 H   0  0  0  0  0  0  0  0  0  0  0  0
   -3.7746    1.2375    2.6481 H   0  0  0  0  0  0  0  0  0  0  0  0
    1.1240    2.8275   -3.6788 H   0  0  0  0  0  0  0  0  0  0  0  0
    0.0636    4.7591   -0.3720 H   0  0  0  0  0  0  0  0  0  0  0  0
    4.3642    1.5021    1.2202 H   0  0  0  0  0  0  0  0  0  0  0  0
    1.3876   -3.7706   -3.4752 H   0  0  0  0  0  0  0  0  0  0  0  0
   -3.8093   -1.0356   -3.5549 H   0  0  0  0  0  0  0  0  0  0  0  0
   -4.6804   -0.9956    2.3072 H   0  0  0  0  0  0  0  0  0  0  0  0
   -0.5034    1.6261   -5.0322 H   0  0  0  0  0  0  0  0  0  0  0  0
    3.4337   -4.0202    0.5181 H   0  0  0  0  0  0  0  0  0  0  0  0
    3.8316    0.9995    3.5412 H   0  0  0  0  0  0  0  0  0  0  0  0
    0.4811   -1.5899    5.0459 H   0  0  0  0  0  0  0  0  0  0  0  0
   -1.4207    3.7446    3.4900 H   0  0  0  0  0  0  0  0  0  0  0  0
    2.4300    4.6321   -0.9269 H   0  0  0  0  0  0  0  0  0  0  0  0
   -3.4006    4.0462   -0.5330 H   0  0  0  0  0  0  0  0  0  0  0  0
    4.7004    0.9929   -2.2674 H   0  0  0  0  0  0  0  0  0  0  0  0
    3.0974   -4.9727   -3.3823 H   0  0  0  0  0  0  0  0  0  0  0  0
   -4.1996    0.0453   -5.3032 H   0  0  0  0  0  0  0  0  0  0  0  0
   -5.7907   -2.7615    2.1456 H   0  0  0  0  0  0  0  0  0  0  0  0
   -1.7262    0.7660   -6.4958 H   0  0  0  0  0  0  0  0  0  0  0  0
    3.5272   -5.7321   -0.6808 H   0  0  0  0  0  0  0  0  0  0  0  0
    3.6879    0.7815    5.6170 H   0  0  0  0  0  0  0  0  0  0  0  0
    2.2379   -1.5928    6.1820 H   0  0  0  0  0  0  0  0  0  0  0  0
   -2.3407    5.5697    3.0433 H   0  0  0  0  0  0  0  0  0  0  0  0
    4.4643    4.9048   -1.3321 H   0  0  0  0  0  0  0  0  0  0  0  0
   -4.2839    5.1351    1.0199 H   0  0  0  0  0  0  0  0  0  0  0  0
    5.3330    2.8241   -3.0570 H   0  0  0  0  0  0  0  0  0  0  0  0
    2.1162   -7.0871   -3.6827 H   0  0  0  0  0  0  0  0  0  0  0  0
   -4.2825   -1.7190   -6.8537 H   0  0  0  0  0  0  0  0  0  0  0  0
   -6.2174   -3.1746    4.4196 H   0  0  0  0  0  0  0  0  0  0  0  0
   -2.8187    2.6912   -7.2856 H   0  0  0  0  0  0  0  0  0  0  0  0
    5.8224   -5.7410   -1.1864 H   0  0  0  0  0  0  0  0  0  0  0  0
    5.6363   -0.4685    6.0234 H   0  0  0  0  0  0  0  0  0  0  0  0
    1.4649   -0.5037    8.1159 H   0  0  0  0  0  0  0  0  0  0  0  0
   -4.1183    5.5077    4.5796 H   0  0  0  0  0  0  0  0  0  0  0  0
    4.3123    6.2532   -3.2511 H   0  0  0  0  0  0  0  0  0  0  0  0
   -3.8204    7.3204    0.2895 H   0  0  0  0  0  0  0  0  0  0  0  0
    7.4284    3.0088   -2.0085 H   0  0  0  0  0  0  0  0  0  0  0  0
    2.4238   -7.4696   -2.1897 H   0  0  0  0  0  0  0  0  0  0  0  0
   -2.9331   -1.2438   -7.5043 H   0  0  0  0  0  0  0  0  0  0  0  0
   -5.2535   -4.4158    4.4007 H   0  0  0  0  0  0  0  0  0  0  0  0
   -4.1725    2.2166   -6.6439 H   0  0  0  0  0  0  0  0  0  0  0  0
    5.5198   -5.3666   -2.6825 H   0  0  0  0  0  0  0  0  0  0  0  0
    4.7787   -1.7385    6.3723 H   0  0  0  0  0  0  0  0  0  0  0  0
    2.3270    0.7656    7.7758 H   0  0  0  0  0  0  0  0  0  0  0  0
   -5.1532    5.3164    3.4124 H   0  0  0  0  0  0  0  0  0  0  0  0
    4.8436    5.0780   -4.1493 H   0  0  0  0  0  0  0  0  0  0  0  0
   -2.7904    7.5198    1.4597 H   0  0  0  0  0  0  0  0  0  0  0  0
    6.9043    4.1897   -1.1136 H   0  0  0  0  0  0  0  0  0  0  0  0
    4.0452   -8.4340   -3.6097 H   0  0  0  0  0  0  0  0  0  0  0  0
   -4.7533   -0.5034   -8.8136 H   0  0  0  0  0  0  0  0  0  0  0  0
   -7.4935   -5.1437    4.2328 H   0  0  0  0  0  0  0  0  0  0  0  0
   -4.1698    1.7251   -8.9534 H   0  0  0  0  0  0  0  0  0  0  0  0
    5.9302   -7.6854   -2.5086 H   0  0  0  0  0  0  0  0  0  0  0  0
    5.4886   -0.6847    8.3626 H   0  0  0  0  0  0  0  0  0  0  0  0
    3.4345   -0.5370    9.4044 H   0  0  0  0  0  0  0  0  0  0  0  0
   -5.1326    7.5762    4.0968 H   0  0  0  0  0  0  0  0  0  0  0  0
    6.6018    6.5847   -3.6859 H   0  0  0  0  0  0  0  0  0  0  0  0
   -4.8429    8.5432    2.0215 H   0  0  0  0  0  0  0  0  0  0  0  0
    8.1512    5.0537   -2.9233 H   0  0  0  0  0  0  0  0  0  0  0  0
    4.4318   -7.0098   -4.1480 H   0  0  0  0  0  0  0  0  0  0  0  0
   -5.3394    0.2671   -7.5765 H   0  0  0  0  0  0  0  0  0  0  0  0
   -7.6842   -4.2814    2.9337 H   0  0  0  0  0  0  0  0  0  0  0  0
   -2.8727    0.8572   -8.7748 H   0  0  0  0  0  0  0  0  0  0  0  0
    4.7488   -7.8252   -1.4828 H   0  0  0  0  0  0  0  0  0  0  0  0
    4.7756    0.6440    7.9223 H   0  0  0  0  0  0  0  0  0  0  0  0
    3.4365   -1.7683    8.4290 H   0  0  0  0  0  0  0  0  0  0  0  0
   -3.5979    7.6677    3.7744 H   0  0  0  0  0  0  0  0  0  0  0  0
    6.3976    6.3605   -2.1445 H   0  0  0  0  0  0  0  0  0  0  0  0
   -5.5827    7.1674    1.8564 H   0  0  0  0  0  0  0  0  0  0  0  0
    7.1799    4.3504   -3.9380 H   0  0  0  0  0  0  0  0  0  0  0  0
  1  5  1  0  0  0  0
  2  8  1  0  0  0  0
  2  3  2  0  0  0  0
  3  4  1  0  0  0  0
  4  1  2  0  0  0  0
  4  9  1  0  0  0  0
  5 10  1  1  0  0  0
  5 61  1  0  0  0  0
  6  5  1  0  0  0  0
  6  7  1  0  0  0  0
  7 14  1  0  0  0  0
  7 83  1  0  0  0  0
 11  6  1  0  0  0  0
 12  6  1  0  0  0  0
 13  7  1  0  0  0  0
 16 49  2  0  0  0  0
 18 51  2  0  0  0  0
 19 52  2  0  0  0  0
 20 64  1  0  0  0  0
 21 65  1  0  0  0  0
 22 55  2  0  0  0  0
 23 67  1  0  0  0  0
 23 56  2  0  0  0  0
 24 68  1  0  0  0  0
 26  3  1  0  0  0  0
 26 92  1  0  0  0  0
 27 38  2  0  0  0  0
 27 37  1  0  0  0  0
 28 94  1  0  0  0  0
 28 43  2  0  0  0  0
 29 46  2  0  0  0  0
 30 47  2  0  0  0  0
 30 41  1  0  0  0  0
 31 42  1  0  0  0  0
 31 97  1  0  0  0  0
 32 43  1  0  0  0  0
 32 98  1  0  0  0  0
 33 39  2  0  0  0  0
 33 44  1  0  0  0  0
 34 45  1  0  0  0  0
 35101  1  0  0  0  0
 36102  1  0  0  0  0
 36 42  2  0  0  0  0
 37 26  2  0  0  0  0
 38  2  1  0  0  0  0
 39 28  1  0  0  0  0
 40 34  2  0  0  0  0
 40 29  1  0  0  0  0
 41 31  2  0  0  0  0
 42 53  1  0  0  0  0
 43 54  1  0  0  0  0
 44 32  2  0  0  0  0
 45 56  1  0  0  0  0
 45 35  2  0  0  0  0
 46 35  1  0  0  0  0
 46 57  1  0  0  0  0
 47 36  1  0  0  0  0
 48 37  1  0  0  0  0
 48 15  2  0  0  0  0
 49104  1  0  0  0  0
 49 38  1  0  0  0  0
 50 17  2  0  0  0  0
 50 39  1  0  0  0  0
 51 40  1  0  0  0  0
 52 41  1  0  0  0  0
 52107  1  0  0  0  0
 53108  1  0  0  0  0
 53 20  2  0  0  0  0
 54109  1  0  0  0  0
 54 21  2  0  0  0  0
 55 44  1  0  0  0  0
 55110  1  0  0  0  0
 56111  1  0  0  0  0
 57 24  2  0  0  0  0
 58 25  2  0  0  0  0
 58 47  1  0  0  0  0
 59114  1  6  0  0  0
 59 15  1  0  0  0  0
 59 63  1  0  0  0  0
 60115  1  1  0  0  0
 60 16  1  0  0  0  0
 61116  1  6  0  0  0
 61 17  1  0  0  0  0
 61 72  1  0  0  0  0
 62117  1  6  0  0  0
 62 60  1  0  0  0  0
 62 18  1  0  0  0  0
 63 19  1  0  0  0  0
 63118  1  1  0  0  0
 64119  1  6  0  0  0
 64 65  1  0  0  0  0
 64 75  1  0  0  0  0
 65120  1  6  0  0  0
 65 76  1  0  0  0  0
 66 22  1  0  0  0  0
 66121  1  1  0  0  0
 66 77  1  0  0  0  0
 67 69  1  0  0  0  0
 67122  1  1  0  0  0
 68123  1  6  0  0  0
 68 66  1  0  0  0  0
 69124  1  6  0  0  0
 69 80  1  0  0  0  0
 69 25  1  0  0  0  0
 70 59  1  0  0  0  0
 70136  1  0  0  0  0
 71126  1  0  0  0  0
 71 60  1  0  0  0  0
 72138  1  0  0  0  0
 72127  1  0  0  0  0
 73139  1  0  0  0  0
 73 62  1  0  0  0  0
 74 63  1  0  0  0  0
 74129  1  0  0  0  0
 75 86  1  0  0  0  0
 76142  1  0  0  0  0
 76131  1  0  0  0  0
 76 87  1  0  0  0  0
 77132  1  0  0  0  0
 78133  1  0  0  0  0
 78 89  1  0  0  0  0
 78 67  1  0  0  0  0
 79 68  1  0  0  0  0
 79145  1  0  0  0  0
 79 90  1  0  0  0  0
 80146  1  0  0  0  0
 81 70  1  0  0  0  0
 81 85  1  0  0  0  0
 82159  1  0  0  0  0
 82 71  1  0  0  0  0
 83 72  1  0  0  0  0
 83149  1  0  0  0  0
 84 82  1  0  0  0  0
 84 73  1  0  0  0  0
 85 74  1  0  0  0  0
 85162  1  0  0  0  0
 86163  1  0  0  0  0
 86152  1  0  0  0  0
 86 87  1  0  0  0  0
 87153  1  0  0  0  0
 88 77  1  0  0  0  0
 88165  1  0  0  0  0
 88154  1  0  0  0  0
 89166  1  0  0  0  0
 90 88  1  0  0  0  0
 91 89  1  0  0  0  0
 91157  1  0  0  0  0
 91 80  1  0  0  0  0
 93 27  1  0  0  0  0
 95 29  1  0  0  0  0
 96 30  1  0  0  0  0
 99 33  1  0  0  0  0
100 34  1  0  0  0  0
103 48  1  0  0  0  0
105 50  1  0  0  0  0
106 51  1  0  0  0  0
112 57  1  0  0  0  0
113 58  1  0  0  0  0
125 70  1  0  0  0  0
128 73  1  0  0  0  0
130 75  1  0  0  0  0
134 79  1  0  0  0  0
135 80  1  0  0  0  0
137 71  1  0  0  0  0
140 74  1  0  0  0  0
141 75  1  0  0  0  0
143 77  1  0  0  0  0
144 78  1  0  0  0  0
147 81  1  0  0  0  0
148 82  1  0  0  0  0
150 84  1  0  0  0  0
151 85  1  0  0  0  0
155 89  1  0  0  0  0
156 90  1  0  0  0  0
158 81  1  0  0  0  0
160 83  1  0  0  0  0
161 84  1  0  0  0  0
164 87  1  0  0  0  0
167 90  1  0  0  0  0
168 91  1  0  0  0  0
M  END
