126
00000001
C      -1.255000    7.372000   -0.627000
H      -2.239000    7.357000   -1.080000
H       0.594000    7.710000   -3.428000
C      -1.167000    4.883000   -2.880000
H      -2.053000    5.286000   -2.406000
C      -1.085000    3.507000   -3.076000
H      -1.896000    2.885000   -2.719000
C       1.407000    0.822000   -3.587000
H       2.297000    1.413000   -3.424000
C       1.485000   -0.583000   -3.534000
C       2.777000   -1.270000   -3.250000
C       3.710000   -0.718000   -2.357000
H       3.521000    0.225000   -1.861000
C       4.883000   -1.414000   -2.057000
H       5.581000   -0.980000   -1.351000
C       4.247000   -3.184000   -3.500000
H       4.439000   -4.151000   -3.949000
C       3.073000   -2.509000   -3.840000
H       2.398000   -2.961000   -4.557000
C       6.321000   -3.400000   -2.193000
H       6.398000   -4.365000   -2.741000
H       7.227000   -2.810000   -2.451000
C       5.196000   -4.426000   -0.183000
H       4.444000   -4.848000   -0.839000
C       6.269000   -3.694000   -0.715000
C       7.235000   -3.161000    0.154000
H       8.072000   -2.595000   -0.236000
N       5.125000   -2.645000   -2.602000
C       1.268000    7.374000    0.577000
H       2.252000    7.360000    1.030000
H      -0.580000    7.734000    3.376000
C       1.175000    4.901000    2.846000
H       2.063000    5.299000    2.370000
C       1.091000    3.526000    3.052000
H       1.901000    2.900000    2.699000
C      -1.405000    0.848000    3.582000
H      -2.295000    1.440000    3.414000
C      -1.486000   -0.556000    3.538000
C      -2.780000   -1.243000    3.259000
C      -3.711000   -0.696000    2.362000
H      -3.520000    0.244000    1.859000
C      -4.885000   -1.392000    2.066000
H      -5.583000   -0.961000    1.358000
C      -4.253000   -3.153000    3.522000
H      -4.447000   -4.117000    3.977000
C      -3.077000   -2.478000    3.857000
H      -2.403000   -2.926000    4.576000
C      -6.327000   -3.374000    2.216000
H      -6.406000   -4.335000    2.770000
H      -7.232000   -2.781000    2.470000
C      -5.204000   -4.416000    0.213000
H      -4.453000   -4.835000    0.872000
C      -6.275000   -3.678000    0.740000
C      -7.240000   -3.149000   -0.132000
H      -8.076000   -2.579000    0.253000
N      -5.130000   -2.619000    2.620000
C      -1.147000    7.360000    0.766000
H      -2.047000    7.327000    1.368000
H       1.188000    7.572000    3.246000
C      -0.963000    5.215000    3.818000
H      -1.780000    5.865000    4.110000
C      -1.077000    3.840000    4.059000
H      -1.967000    3.463000    4.546000
C       0.970000    0.711000    4.030000
H       1.906000    1.202000    4.263000
C       0.928000   -0.689000    3.932000
C       2.188000   -1.489000    3.967000
C       3.382000   -0.956000    3.454000
H       3.427000    0.048000    3.052000
C       4.529000   -1.744000    3.391000
H       5.431000   -1.316000    2.971000
C       3.363000   -3.583000    4.329000
H       3.339000   -4.614000    4.659000
C       2.201000   -2.813000    4.439000
H       1.317000   -3.261000    4.874000
C       5.680000   -3.899000    3.548000
H       6.544000   -3.478000    4.108000
H       5.524000   -4.934000    3.926000
C       5.046000   -4.554000    1.200000
H       4.177000   -5.066000    1.594000
C       5.973000   -3.960000    2.070000
C       7.090000   -3.297000    1.537000
H       7.813000   -2.826000    2.191000
N       4.499000   -3.054000    3.781000
C       1.160000    7.352000   -0.816000
H       2.060000    7.314000   -1.418000
H      -1.174000    7.552000   -3.297000
C       0.973000    5.187000   -3.854000
H       1.790000    5.834000   -4.149000
C       1.084000    3.811000   -4.084000
H       1.973000    3.428000   -4.569000
C      -0.969000    0.686000   -4.035000
H      -1.904000    1.176000   -4.272000
C      -0.929000   -0.714000   -3.927000
C      -2.190000   -1.512000   -3.957000
C      -3.384000   -0.973000   -3.447000
H      -3.427000    0.033000   -3.053000
C      -4.532000   -1.759000   -3.379000
H      -5.433000   -1.327000   -2.962000
C      -3.370000   -3.606000   -4.304000
H      -3.347000   -4.640000   -4.627000
C      -2.206000   -2.839000   -4.420000
H      -1.323000   -3.291000   -4.851000
C      -5.687000   -3.913000   -3.522000
H      -6.550000   -3.494000   -4.085000
H      -5.532000   -4.950000   -3.893000
C      -5.054000   -4.553000   -1.169000
H      -4.186000   -5.069000   -1.560000
C      -5.980000   -3.963000   -2.043000
C      -7.096000   -3.294000   -1.515000
H      -7.818000   -2.827000   -2.172000
N      -4.504000   -3.072000   -3.760000
C      -0.102000    7.332000   -1.428000
C      -0.214000    7.137000   -2.919000
C       0.054000    2.947000   -3.678000
C       0.176000    1.467000   -3.807000
C       0.307000   -1.336000   -3.680000
H       0.345000   -2.408000   -3.535000
N      -0.135000    5.704000   -3.239000
C       0.115000    7.341000    1.378000
C       0.226000    7.156000    2.871000
C      -0.049000    2.972000    3.658000
C      -0.174000    1.493000    3.796000
C      -0.309000   -1.311000    3.689000
H      -0.349000   -2.383000    3.551000
N       0.145000    5.725000    3.200000
