120
00000001
N       1.142000    0.749000    3.801000
N       4.879000   -2.682000    3.276000
C      -1.196000    7.682000    0.706000
H      -2.081000    8.007000    1.238000
H       0.778000    7.580000    3.342000
C       1.027000    5.027000    3.686000
H       1.937000    5.598000    3.829000
C       1.063000    3.645000    3.887000
H       1.993000    3.181000    4.191000
C       1.191000   -0.609000    3.834000
C       2.491000   -1.313000    3.737000
C       3.648000   -0.623000    3.346000
H       3.630000    0.446000    3.172000
C       4.831000   -1.326000    3.114000
H       5.703000   -0.784000    2.767000
C       3.780000   -3.365000    3.717000
H       3.814000   -4.440000    3.849000
C       2.573000   -2.698000    3.945000
H       1.706000   -3.269000    4.253000
C       6.096000   -3.410000    2.892000
H       6.098000   -4.441000    3.311000
H       6.987000   -2.897000    3.318000
C       6.180000   -3.495000    1.390000
C       7.156000   -2.777000    0.680000
H       7.897000   -2.190000    1.207000
C       5.228000   -4.244000    0.682000
H       4.470000   -4.807000    1.212000
N      -1.221000    0.682000   -3.761000
N      -4.754000   -2.964000   -3.261000
C       1.054000    6.791000   -0.697000
H       1.925000    6.428000   -1.228000
H      -1.022000    7.566000   -3.332000
C      -1.280000    4.916000   -3.069000
H      -2.187000    5.400000   -2.727000
C      -1.289000    3.536000   -3.276000
H      -2.201000    2.983000   -3.090000
C      -1.191000   -0.675000   -3.803000
C      -2.445000   -1.456000   -3.698000
C      -3.639000   -0.838000   -3.298000
H      -3.682000    0.228000   -3.110000
C      -4.782000   -1.609000   -3.079000
H      -5.683000   -1.121000   -2.727000
C      -3.617000   -3.578000   -3.708000
H      -3.591000   -4.651000   -3.855000
C      -2.450000   -2.841000   -3.923000
H      -1.552000   -3.358000   -4.240000
C      -5.931000   -3.763000   -2.894000
H      -5.871000   -4.788000   -3.322000
H      -6.846000   -3.297000   -3.321000
C      -6.019000   -3.866000   -1.393000
C      -7.033000   -3.205000   -0.683000
H      -7.804000   -2.656000   -1.209000
C      -5.029000   -4.566000   -0.687000
H      -4.240000   -5.085000   -1.217000
N       1.122000    0.752000   -3.806000
N       4.862000   -2.679000   -3.304000
C      -1.199000    7.682000   -0.693000
H      -2.088000    8.008000   -1.220000
H       0.760000    7.583000   -3.339000
C       1.008000    5.030000   -3.687000
H       1.917000    5.602000   -3.834000
C       1.042000    3.649000   -3.889000
H       1.970000    3.185000   -4.198000
C       1.170000   -0.605000   -3.840000
C       2.471000   -1.310000   -3.751000
C       3.630000   -0.620000   -3.366000
H       3.613000    0.449000   -3.190000
C       4.815000   -1.323000   -3.141000
H       5.688000   -0.781000   -2.798000
C       3.760000   -3.361000   -3.740000
H       3.794000   -4.436000   -3.873000
C       2.552000   -2.695000   -3.961000
H       1.684000   -3.265000   -4.265000
C       6.081000   -3.408000   -2.927000
H       6.969000   -2.894000   -3.358000
H       6.080000   -4.438000   -3.348000
C       6.173000   -3.494000   -1.426000
C       7.153000   -2.777000   -0.720000
H       7.891000   -2.189000   -1.250000
C       5.224000   -4.244000   -0.714000
H       4.463000   -4.806000   -1.240000
N      -1.202000    0.679000    3.768000
N      -4.737000   -2.967000    3.284000
C       1.057000    6.790000    0.698000
H       1.932000    6.427000    1.224000
H      -1.004000    7.563000    3.344000
C      -1.264000    4.913000    3.080000
H      -2.173000    5.398000    2.743000
C      -1.271000    3.533000    3.286000
H      -2.185000    2.980000    3.104000
C      -1.170000   -0.679000    3.808000
C      -2.426000   -1.460000    3.709000
C      -3.622000   -0.841000    3.316000
H      -3.665000    0.225000    3.130000
C      -4.765000   -1.612000    3.103000
H      -5.669000   -1.124000    2.756000
C      -3.597000   -3.581000    3.723000
H      -3.571000   -4.654000    3.869000
C      -2.429000   -2.845000    3.934000
H      -1.530000   -3.362000    4.245000
C      -5.915000   -3.766000    2.922000
H      -6.829000   -3.300000    3.354000
H      -5.853000   -4.791000    3.349000
C      -6.011000   -3.867000    1.421000
C      -7.030000   -3.205000    0.717000
H      -7.797000   -2.657000    1.248000
C      -5.025000   -4.567000    0.709000
H      -4.234000   -5.086000    1.235000
N      -0.119000    5.639000    3.260000
N       0.030000   -1.315000    3.839000
C      -0.076000    7.211000    1.410000
C      -0.109000    7.065000    2.909000
C      -0.091000    2.877000    3.668000
C      -0.050000    1.401000    3.777000
N      -0.136000    5.642000   -3.254000
N       0.010000   -1.311000   -3.840000
C      -0.083000    7.212000   -1.403000
C      -0.124000    7.068000   -2.902000
C      -0.111000    2.881000   -3.665000
C      -0.070000    1.404000   -3.776000
