432

N 6.12873 3.90578 8.22983
N 4.28212 9.36078 10.0181
N 1.88297 7.00422 28.2661
N 3.72958 1.54922 26.4778
N 3.64155 4.73603 9.58018
N 6.7693 10.191 8.66778
N 4.37015 6.17397 26.9157
N 1.2424 0.718969 27.8281
N 4.83148 3.18572 0.17883
N 5.57937 8.64072 18.0691
N 3.18022 7.72428 36.3171
N 2.43233 2.26928 18.4268
N 7.44621 0.37094 4.79556
N 2.96464 5.82594 13.4524
N 0.565492 10.5391 31.7004
N 5.04706 5.08406 23.0435
N 8.88051 8.85892 5.23717
N 1.53034 3.40392 13.0108
N -0.868813 2.05108 31.2588
N 6.48136 7.50608 23.4851
N 11.4394 4.364 5.66052
N -1.02852 9.819 12.5874
N -3.42767 6.546 30.8354
N 9.04022 1.091 23.9085
N 11.8892 4.30072 2.75544
N -1.47836 9.75572 15.4925
N -3.87751 6.60928 33.7405
N 9.49006 1.15428 21.0034
N 2.40586 0.5455 0.963492
N 8.00499 6.0005 17.2845
N 5.60584 10.3645 35.5324
N 0.00671194 4.9095 19.2115
N 7.23536 3.64394 1.83939
N 3.17549 9.09894 16.4086
N 0.776338 7.26606 34.6565
N 4.83621 1.81106 20.0874
N 0.0129259 9.93901 8.28092
N 10.3979 4.48401 9.96704
N 7.99877 0.97099 28.215
N -2.38622 6.42599 26.5289
N -2.66696 8.89165 35.9521
N 8.27951 3.43665 18.7918
N 10.6787 2.01835 0.54379
N -0.267807 7.47335 17.7042
N 1.57063 1.38557 7.27729
N 8.84022 6.84057 10.9707
N 6.44107 9.52443 29.2186
N -0.828518 4.06943 25.5252
C 6.88713 5.26953 6.36854
C 3.52372 10.7245 11.8794
C 1.12457 5.64047 30.1274
C 4.48798 0.18547 24.6165
C 1.81367 5.53137 8.15684
C 8.59718 0.0763697 10.0911
C 6.19803 5.37863 28.3391
C -0.585477 10.8336 26.4048
C 3.24213 4.96405 0.507293
C 7.16872 10.419 17.7407
C 4.76957 5.94595 35.9886
C 0.842977 0.49095 18.7553
C 5.04436 0.56732 4.94155
C 5.3665 6.02232 13.3064
C 2.96735 10.3427 31.5544
C 2.64521 4.88768 23.1895
C 7.54279 6.46963 6.05832
C 2.86806 1.01463 12.1896
C 0.468908 4.44037 30.4376
C 5.14364 9.89537 24.3063
C 1.77005 6.80784 8.75172
C 8.6408 1.35284 9.49624
C 6.24165 4.10216 27.7442
C -0.629102 9.55716 26.9997
C 2.42417 4.18944 1.32115
C 7.98668 9.64444 16.9268
C 5.58753 6.72056 35.1748
C 0.02502 1.26556 19.5691
C 4.89075 0.31639 3.5766
C 5.5201 5.77139 14.6714
C 3.12095 10.5936 32.9193
C 2.4916 5.13861 21.8246
C 7.82137 6.74238 4.71892
C 2.58948 1.28738 13.529
C 0.190331 4.16762 31.777
C 5.42222 9.62262 22.9669
C 0.880313 7.72428 8.21158
C 9.53054 2.26928 10.0364
C 7.13139 3.18572 28.2843
C -1.51884 8.64072 26.4595
C 1.20456 4.73494 1.71166
C 9.20629 10.1899 16.5363
C 6.80714 6.17506 34.7843
C -1.19459 0.72006 19.9596
C 3.62648 0.42549 3.04011
C 6.78437 5.88049 15.2079
C 4.38522 10.4845 33.4558
C 1.22733 5.02951 21.2881
C 7.52546 5.8914 3.65689
C 2.88539 0.4364 14.5911
C 0.48624 5.0186 32.839
C 5.12631 10.4736 21.9049
C -0.0538431 7.42971 7.22984
C 10.4647 1.97471 11.0181
C 8.06554 3.48029 29.2661
C -2.45299 8.93529 25.4778
C 0.75728 6.03323 1.40144
C 9.65357 0.57823 16.8465
C 7.25442 4.87677 35.0945
C -1.64187 10.3318 19.6494
C 2.45784 0.73097 3.74448
C 7.95301 6.18597 14.5035
C 5.55386 10.179 32.7514
C 0.0586878 4.72403 21.9924
C 6.9883 4.61493 4.0401
C 3.42255 10.0699 14.2079
C 1.0234 6.29507 32.4558
C 4.58915 0.84007 22.2881
C -0.0407859 6.08778 6.7408
C 10.4516 0.63278 11.5072
C 8.05249 4.82222 29.7551
C -2.43994 10.2772 24.9888
C 1.65514 6.79693 0.583935
C 8.75571 1.34193 17.664
C 6.35656 4.11307 35.912
C -0.74401 9.56807 18.8319
C 2.6779 0.93826 5.14957
C 7.73295 6.39326 13.0984
C 5.3338 9.97174 31.3463
C 0.278749 4.51674 23.3975
C 6.61012 4.35309 5.3576
C 3.80073 9.80809 12.8904
C 1.40158 6.55691 31.1383
C 4.21097 1.10191 23.6056
C 0.865594 5.14952 7.22254
C 9.54526 10.6045 11.0254
C 7.14611 5.76048 29.2734
C -1.53356 0.30548 25.4705
C 2.84736 6.24052 0.109488
C 7.56349 0.78552 18.1385
C 5.16434 4.66948 36.3864
C 0.448209 10.1245 18.3575
C 3.93288 0.91644 5.70796
C 6.47797 6.37144 12.54
C 4.07882 9.99356 30.788
C 1.53373 4.53856 23.9559
C 6.58518 5.0186 7.78823
C 3.82567 10.4736 10.4597
C 1.42652 5.8914 28.7077
C 4.18603 0.4364 26.0362
C 2.746 4.56038 8.70428
C 7.66485 10.0154 9.54368
C 5.2657 6.34962 27.7916
C 0.346853 0.89462 26.9522
C 4.54019 4.41855 0.0656927
C 5.87066 9.87355 18.1823
C 3.47151 6.49145 36.4302
C 2.14104 1.03645 18.3137
C 6.39333 0.52368 5.49629
C 4.01752 5.97868 12.7517
C 1.61837 10.3863 30.9996
C 3.99418 4.93132 23.7442
C 6.01494 3.79668 9.68967
C 4.39591 9.25168 8.55829
C 1.99676 7.11332 26.8063
C 3.61579 1.65832 27.9376
C 4.49074 3.58939 9.8831
C 5.92011 9.04439 8.36487
C 3.52096 7.32061 26.6128
C 2.09159 1.86561 28.1311
C 1.41341 2.8366 36.339
C 4.19914 8.2916 18.4049
C 6.59829 8.0734 0.156932
C 3.81256 2.6184 18.091
C 8.70073 0.30548 5.50359
C 1.71012 5.76048 12.7444
C -0.689033 10.6045 30.9923
C 6.30158 5.14952 23.7515
C 8.48231 8.02976 4.36856
C 1.92854 2.57476 13.8794
C -0.470613 2.88024 32.1274
C 6.08316 8.33524 22.6165
C 0.858139 9.10985 8.76997
C 9.55271 3.65485 9.47799
C 7.15356 1.80015 27.726
C -1.54101 7.25515 27.0179
C 0.261853 3.90578 2.47077
C 10.149 9.36078 15.7772
C 7.74985 7.00422 34.0251
C -2.1373 1.54922 20.7187
C 3.46694 0.28366 1.58392
C 6.94391 5.73866 16.664
C 4.54476 10.6263 34.912
C 1.06779 5.17134 19.8319
C 9.52687 10.1027 4.80286
C 0.883977 4.64766 13.4451
C -1.51517 0.80734 31.6931
C 7.12772 6.26234 23.0508
C 0.0584951 0.36003 8.90866
C 10.3524 5.81503 9.33931
C 7.95321 10.55 27.5873
C -2.34065 5.09497 27.1566
C 11.0333 3.39301 3.50726
C -0.622446 8.84801 14.7407
C -3.0216 7.51699 32.9887
C 8.63415 2.06199 21.7552
C -2.36511 0.36003 36.0142
C 7.97766 5.81503 18.7297
C 10.3768 10.55 0.481746
C 0.0340381 5.09497 17.7662
C 6.71417 3.6003 3.00726
C 3.69668 9.0553 15.2407
C 1.29753 7.3097 33.4887
C 4.31502 1.8547 21.2552
C 11.7707 5.60774 5.78095
C -1.35984 0.152741 12.467
C -3.75899 5.30226 30.715
C 9.37154 10.7573 24.0289
C 1.30664 8.14977 0.116787
C 9.10421 2.69477 18.1312
C 6.70506 2.76023 36.3791
C -1.09251 8.21523 18.3647
C 1.50351 1.18919 6.01453
C 8.90734 6.64419 12.2334
C 6.50819 9.72081 30.4814
C -0.895638 4.26581 24.2625
C 7.08905 2.43293 1.03283
C 3.3218 7.88793 17.2151
C 0.922652 8.47707 35.4631
C 4.6899 3.02207 19.2808
C 10.3739 4.13489 4.69338
C 0.0369318 9.58989 13.5546
C -2.36222 6.77511 31.8025
C 7.97477 1.32011 22.9413
C -3.26718 10.1463 35.4704
C 8.87973 4.6913 19.2735
C 11.2789 0.7637 1.02554
C -0.868027 6.2187 17.2224
C 0.220387 1.51649 7.87217
C 10.1905 6.97149 10.3758
C 7.79131 9.39351 28.6238
C -2.17876 3.93851 26.1201
H 6.32869 4.62039 10.1386
H 4.08216 10.0754 8.10939
H 1.68301 6.28961 26.3574
H 3.92954 0.834615 28.3865
H 6.52659 3.02098 10.0364
H 3.88426 8.47598 8.21158
H 1.48511 7.88902 26.4595
H 4.12744 2.43402 28.2843
H 7.77924 7.08386 6.74445
H 2.63161 1.62886 11.5035
H 0.232461 3.82614 29.7515
H 5.38009 9.28114 24.9924
H 2.32595 7.02277 9.49259
H 8.0849 1.56777 8.75537
H 5.68575 3.88723 27.0033
H -0.0731973 9.34223 27.7406
H 2.68698 3.32319 1.60217
H 7.72387 8.77819 16.6458
H 5.32472 7.58681 34.8938
H 0.287827 2.13181 19.8501
H 5.63301 0.072006 3.03646
H 4.77784 5.52701 15.2115
H 2.37869 10.838 33.4595
H 3.23386 5.38299 21.2844
H 4.19843 2.83769 9.31011
H 6.21242 8.29269 8.93785
H 3.81327 8.07231 27.1858
H 1.79928 2.61731 27.5581
H 4.32387 3.32864 10.821
H 6.08698 8.78364 7.42692
H 3.68783 7.58136 25.6749
H 1.92472 2.12636 29.069
H 7.66928 6.13251 2.74814
H 2.74157 0.677512 15.4998
H 0.342423 4.77749 33.7478
H 5.27013 10.2325 20.9961
H -0.664448 8.08649 6.90503
H 11.0753 2.63149 11.3429
H 8.67615 2.82351 29.5909
H -3.0636 8.27851 25.153
H -0.0721214 6.38126 1.70801
H 10.483 0.926259 16.54
H 8.08382 4.52874 34.7879
H -2.47127 9.98374 19.956
H 1.60335 0.797521 3.33573
H 8.8075 6.25252 14.9122
H 6.40835 10.1125 33.1602
H -0.7958 4.65748 21.5837
H 1.83111 3.61885 35.8901
H 3.78145 9.07385 18.8538
H 6.18059 7.29115 0.605833
H 4.23026 1.83615 17.6421
H 1.3989 2.09472 35.6894
H 4.21365 7.54972 19.0545
H 6.6128 8.81528 0.806559
H 3.79805 3.36028 17.4414
H 6.14851 3.54357 5.56563
H 4.26234 8.99857 12.6823
H 1.86319 7.36643 30.9303
H 3.74936 1.91143 23.8136
H 0.832882 4.25272 6.91598
H 9.57797 9.70772 11.332
H 7.17882 6.65728 29.5799
H -1.56627 1.20228 25.1639
H -1.40725 6.74238 36.0069
H 7.0198 1.28738 18.737
H 9.41895 4.16762 0.489046
H 0.991904 9.62262 17.7589
H 4.04383 1.139 6.62766
H 6.36702 6.594 11.6203
H 3.96787 9.771 29.8683
H 1.64468 4.316 24.8756
H 8.55244 0.086189 6.45613
H 1.85841 5.54119 11.7918
H -0.540739 10.8238 30.0398
H 6.15329 5.36881 24.7041
H 6.73755 5.71466 8.41231
H 3.6733 0.259658 9.83565
H 1.27415 5.19534 28.0836
H 4.33841 10.6503 26.6603
H 2.66893 3.67558 8.36487
H 7.74192 9.13058 9.8831
H 5.34277 7.23442 28.1311
H 0.269782 1.77942 26.6128
H 0.381537 5.01096 36.1784
H 5.23101 10.466 18.5655
H 7.63016 5.89904 0.317515
H 2.78069 0.444037 17.9304
H 6.49115 0.603323 6.43788
H 3.9197 6.05832 11.8101
H 1.52055 10.3067 30.058
H 4.092 4.85168 24.6858
H 9.17678 1.17501 5.44884
H 1.23407 6.63001 12.7991
H -1.16508 9.73499 31.0471
H 6.77763 4.27999 23.6968
H 8.60788 8.23159 3.45251
H 1.80298 2.7766 14.7954
H -0.596175 2.67841 33.0434
H 6.20873 8.1334 21.7005
H 1.45487 9.36296 9.46339
H 8.95598 3.90796 8.78457
H 6.55683 1.54704 27.0325
H -0.944282 7.00204 27.7114
H 0.539874 3.0428 2.76274
H 9.87098 8.4978 15.4852
H 7.47183 7.8672 33.7332
H -1.85928 2.4122 21.0107
H 4.21593 10.898 1.08028
H 6.19492 5.443 17.1677
H 3.79577 0.012001 35.4156
H 1.81678 5.467 19.3282
H 9.47965 10.1932 3.81747
H 0.9312 4.73821 14.4305
H -1.46795 0.716787 32.6784
H 7.0805 6.17179 22.0654
H 10.4694 10.1256 5.08753
H -0.0585615 4.67057 13.1604
H -2.45771 0.784429 31.4084
H 8.07026 6.23943 23.3355
H 0.8131 0.387305 9.55098
H 9.59775 5.8423 8.69698
H 7.1986 10.5227 26.9449
H -1.58605 5.0677 27.7989
H -0.777761 0.50186 9.42325
H 11.1886 5.95686 8.82471
H 8.78946 10.4081 27.0727
H -3.17691 4.95314 27.6712
H 11.5715 2.63804 3.84667
H -1.16068 8.09304 14.4013
H -3.55983 8.27196 32.6493
H 9.17238 2.81696 22.0946
H 10.3319 3.03189 2.90873
H 0.0789911 8.48689 15.3392
H -2.32016 7.87811 33.5872
H 7.93271 2.42311 21.1567
H -1.4273 0.180015 35.7405
H 7.03985 5.63501 19.0034
H 9.439 10.73 0.755465
H 0.971849 5.27499 17.4925
H -2.63259 1.21428 35.5835
H 8.24514 6.66928 19.1604
H 10.6443 9.69572 0.912397
H -0.233435 4.24072 17.3356
H 6.13087 2.88242 3.21529
H 4.27998 8.33742 15.0327
H 1.88083 8.02758 33.2806
H 3.73172 2.57258 21.4633
H 11.3437 6.23943 5.21892
H -0.932864 0.784429 13.029
H -3.33201 4.67057 31.277
H 8.94456 10.1256 23.4669
H 0.44135 8.49016 0.306566
H 9.9695 3.03516 17.9414
H 7.57035 2.41984 36.1894
H -1.9578 7.87484 18.5545
H 0.64518 1.1881 5.60577
H 9.76567 6.6431 12.6422
H 7.36652 9.7219 30.8901
H -1.75397 4.2669 23.8537
H 6.65871 1.71396 1.55838
H 3.75214 7.16896 16.6896
H 1.35299 9.19604 34.9375
H 4.25956 3.74104 19.8063
H 7.97449 2.11327 0.71897
H 2.43636 7.56827 17.529
H 0.0372083 8.79673 35.777
H 5.57534 3.34173 18.9669
H 9.98157 4.9946 4.39411
H 0.429283 10.4496 13.8539
H -1.96987 5.9154 32.1018
H 7.58242 0.460402 22.6421
H 9.65422 3.58175 5.09118
H 0.756634 9.03675 13.1568
H -1.64252 7.32825 31.4047
H 7.25507 1.87325 23.3391
H -4.18672 10.2423 35.8098
H 9.79928 4.78731 18.9341
H 12.1984 0.667692 0.686124
H -1.78757 6.12269 17.5618
H -3.28446 10.1594 34.4813
H 8.89701 4.70439 20.2625
H 11.2962 0.750608 2.01457
H -0.885309 6.20561 16.2334
H -0.468896 1.44994 7.17145
H 10.8797 6.90494 11.0765
H 8.4806 9.46006 29.3245
H -2.86805 4.00506 25.4194
H 0.131425 2.39475 8.32472
H 10.2794 7.84975 9.92324
H 7.88028 8.51525 28.1712
H -2.26772 3.06025 26.5727
